<?xml version="1.0" encoding="UTF-8"?>

<!-- generated on 2022-06-09 18:20:03 by Eclipse SUMO netedit Version 1.13.0
<configuration xmlns:xsi="http://www.w3.org/2001/XMLSchema-instance" xsi:noNamespaceSchemaLocation="http://sumo.dlr.de/xsd/netconvertConfiguration.xsd">

    <output>
        <output-file value="/home/jeroen/repos/sumo-web3d/sumo_web3d/scenarios/multilane/multilane.net.xml"/>
    </output>

    <processing>
        <offset.disable-normalization value="true"/>
    </processing>

    <junctions>
        <no-turnarounds value="true"/>
    </junctions>

    <report>
        <aggregate-warnings value="5"/>
    </report>

</configuration>
-->

<net version="1.9" junctionCornerDetail="5" limitTurnSpeed="5.50" xmlns:xsi="http://www.w3.org/2001/XMLSchema-instance" xsi:noNamespaceSchemaLocation="http://sumo.dlr.de/xsd/net_file.xsd">

    <location netOffset="0.00,0.00" convBoundary="13.83,-21.63,211.11,99.59" origBoundary="10000000000.00,10000000000.00,-10000000000.00,-10000000000.00" projParameter="!"/>

    <edge id=":J1_0" function="internal">
        <lane id=":J1_0_0" index="0" speed="6.94" length="6.21" shape="105.72,30.95 107.11,30.33 108.23,29.38 109.07,28.11 109.63,26.51"/>
        <lane id=":J1_0_1" index="1" speed="7.85" length="8.11" shape="105.72,30.95 108.64,29.98 110.78,29.04 112.15,28.13 112.74,27.26"/>
        <lane id=":J1_0_2" index="2" speed="8.89" length="10.60" shape="105.72,30.95 107.67,30.51 111.06,29.74 114.30,28.84 115.85,28.01"/>
    </edge>
    <edge id=":J1_3" function="internal">
        <lane id=":J1_3_0" index="0" speed="13.89" length="24.49" shape="105.72,30.95 113.01,29.69 118.14,30.61 123.34,32.61 130.84,34.57"/>
        <lane id=":J1_3_1" index="1" speed="13.89" length="24.49" shape="106.65,34.01 113.53,32.86 118.35,33.84 123.24,35.83 130.31,37.72"/>
        <lane id=":J1_3_2" index="2" speed="13.89" length="24.49" shape="107.59,37.07 114.04,36.04 118.56,37.07 123.14,39.05 129.78,40.88"/>
    </edge>
    <edge id=":J1_6" function="internal">
        <lane id=":J1_6_0" index="0" speed="8.80" length="24.22" shape="107.59,37.07 114.90,35.55 120.95,35.92 124.66,38.80 124.98,44.78"/>
        <lane id=":J1_6_1" index="1" speed="7.55" length="17.44" shape="108.52,40.13 115.08,38.66 119.48,38.83 121.75,40.62 121.86,44.04"/>
        <lane id=":J1_6_2" index="2" speed="6.72" length="13.50" shape="108.52,40.13 113.56,39.01 116.95,39.17 118.68,40.59 118.75,43.30"/>
        <lane id=":J1_6_3" index="3" speed="5.77" length="9.56" shape="108.52,40.13 112.05,39.36 114.41,39.51 115.61,40.57 115.64,42.55"/>
    </edge>

    <edge id="E0" from="J0" to="J1" priority="-1" shape="13.83,48.51 15.10,48.86 16.38,49.20 17.64,49.54 18.91,49.87 20.17,50.20 21.44,50.52 22.71,50.82 23.99,51.12 25.27,51.40 26.57,51.67 27.87,51.93 29.19,52.18 30.53,52.40 31.89,52.62 33.27,52.81 34.67,52.98 36.09,53.14 37.55,53.28 39.03,53.39 40.54,53.48 42.09,53.55 43.67,53.60 45.30,53.61 46.96,53.61 48.66,53.57 50.41,53.51 52.20,53.42 54.04,53.30 55.93,53.14 57.88,52.96 59.88,52.74 61.93,52.49 64.05,52.20 66.22,51.88 68.46,51.52 70.77,51.12 73.14,50.69 75.58,50.21 78.09,49.69 80.68,49.14 83.34,48.54 86.08,47.89 88.91,47.20 91.81,46.47 94.80,45.68 97.87,44.85 101.03,43.98 104.29,43.05 107.63,42.07 111.07,41.04 114.61,39.96">
        <lane id="E0_0" index="0" speed="13.89" length="93.38" shape="16.82,37.71 18.04,38.05 19.28,38.38 20.51,38.71 21.74,39.03 22.96,39.35 24.10,39.64 25.28,39.92 26.46,40.20 27.61,40.45 28.81,40.70 30.01,40.94 31.14,41.15 32.33,41.35 33.55,41.54 34.71,41.70 35.97,41.86 37.25,42.00 38.50,42.12 39.78,42.21 41.12,42.30 42.52,42.36 43.88,42.40 45.33,42.41 46.83,42.41 48.34,42.37 49.94,42.32 51.55,42.24 53.20,42.13 54.94,41.98 56.75,41.82 58.59,41.61 60.49,41.38 62.47,41.11 64.51,40.81 66.61,40.47 68.81,40.09 71.06,39.69 73.36,39.23 75.79,38.73 78.28,38.20 80.81,37.63 83.46,37.00 86.22,36.33 89.01,35.63 91.91,34.86 94.92,34.05 98.01,33.20 101.18,32.29 104.45,31.33 105.72,30.95"/>
        <lane id="E0_1" index="1" speed="13.89" length="93.38" shape="15.97,40.80 17.20,41.14 18.45,41.47 19.69,41.81 20.93,42.13 22.16,42.45 23.34,42.75 24.54,43.03 25.76,43.32 26.94,43.58 28.17,43.83 29.40,44.08 30.58,44.30 31.82,44.50 33.07,44.71 34.30,44.88 35.60,45.03 36.92,45.18 38.23,45.31 39.56,45.41 40.96,45.49 42.40,45.56 43.82,45.60 45.32,45.61 46.86,45.61 48.43,45.57 50.07,45.52 51.74,45.43 53.44,45.32 55.22,45.17 57.07,45.00 58.96,44.79 60.90,44.56 62.92,44.28 65.00,43.97 67.14,43.63 69.37,43.24 71.65,42.83 74.00,42.37 76.45,41.86 78.97,41.33 81.54,40.75 84.21,40.11 86.99,39.43 89.81,38.72 92.73,37.95 95.76,37.13 98.87,36.28 102.07,35.37 105.36,34.40 106.65,34.01"/>
        <lane id="E0_2" index="2" speed="13.89" length="93.38" shape="15.11,43.88 16.36,44.23 17.62,44.56 18.87,44.90 20.12,45.23 21.36,45.55 22.58,45.86 23.81,46.15 25.05,46.44 26.27,46.71 27.53,46.97 28.79,47.22 30.03,47.45 31.30,47.66 32.60,47.87 33.89,48.05 35.23,48.21 36.59,48.37 37.96,48.50 39.35,48.60 40.79,48.69 42.27,48.75 43.76,48.80 45.31,48.81 46.90,48.81 48.52,48.77 50.21,48.71 51.92,48.63 53.68,48.51 55.51,48.36 57.40,48.18 59.33,47.97 61.31,47.73 63.37,47.45 65.49,47.14 67.67,46.79 69.93,46.39 72.25,45.97 74.63,45.51 77.10,44.99 79.65,44.45 82.26,43.86 84.96,43.22 87.76,42.54 90.61,41.82 93.56,41.04 96.61,40.22 99.73,39.36 102.96,38.44 106.27,37.47 107.59,37.07"/>
        <lane id="E0_3" index="3" speed="13.89" length="93.38" shape="14.25,46.96 15.52,47.32 16.79,47.65 18.05,47.99 19.31,48.32 20.57,48.65 21.82,48.97 23.08,49.26 24.34,49.56 25.60,49.84 26.89,50.10 28.18,50.36 29.47,50.60 30.79,50.82 32.13,51.04 33.48,51.22 34.86,51.39 36.26,51.55 37.69,51.69 39.14,51.79 40.62,51.88 42.15,51.95 43.70,52.00 45.30,52.01 46.94,52.01 48.61,51.97 50.34,51.91 52.11,51.82 53.92,51.70 55.79,51.55 57.72,51.37 59.70,51.15 61.72,50.90 63.82,50.62 65.98,50.30 68.20,49.94 70.49,49.54 72.84,49.12 75.26,48.64 77.76,48.12 80.34,47.58 82.98,46.98 85.71,46.33 88.53,45.65 91.41,44.92 94.39,44.13 97.45,43.31 100.60,42.44 103.85,41.51 107.18,40.54 108.52,40.13"/>
    </edge>
    <edge id="E1" from="J1" to="J2" priority="-1" shape="114.61,39.96 114.09,42.14 113.60,44.31 113.14,46.47 112.71,48.63 112.30,50.77 111.92,52.91 111.57,55.04 111.25,57.15 110.95,59.26 110.69,61.36 110.45,63.46 110.24,65.54 110.05,67.61 109.90,69.68 109.77,71.73 109.67,73.78 109.60,75.82 109.56,77.85 109.54,79.87 109.55,81.88 109.59,83.88 109.66,85.88 109.76,87.86 109.88,89.84 110.03,91.81 110.21,93.76 110.42,95.71 110.66,97.66 110.92,99.59">
        <lane id="E1_0" index="0" speed="13.89" length="55.47" shape="124.98,44.78 124.54,46.71 124.11,48.73 123.70,50.78 123.31,52.80 122.96,54.80 122.63,56.79 122.33,58.78 122.05,60.74 121.81,62.68 121.59,64.66 121.39,66.61 121.21,68.53 121.07,70.44 120.95,72.36 120.86,74.25 120.80,76.12 120.76,78.02 120.74,79.90 120.75,81.74 120.79,83.57 120.85,85.40 120.94,87.24 121.05,89.08 121.19,90.87 121.35,92.65 121.55,94.43 121.77,96.23 122.02,98.09"/>
        <lane id="E1_1" index="1" speed="13.89" length="55.47" shape="121.86,44.04 121.41,46.02 120.98,48.08 120.56,50.16 120.17,52.22 119.81,54.26 119.47,56.29 119.17,58.31 118.88,60.31 118.63,62.31 118.40,64.32 118.20,66.31 118.02,68.26 117.88,70.22 117.76,72.18 117.66,74.11 117.60,76.04 117.56,77.97 117.54,79.89 117.55,81.78 117.59,83.66 117.65,85.54 117.75,87.42 117.86,89.29 118.00,91.14 118.17,92.96 118.37,94.79 118.59,96.64 118.85,98.52"/>
        <lane id="E1_2" index="2" speed="13.89" length="55.47" shape="118.75,43.30 118.29,45.34 117.84,47.44 117.42,49.55 117.02,51.64 116.65,53.72 116.31,55.79 116.00,57.85 115.71,59.89 115.46,61.93 115.22,63.97 115.02,66.00 114.83,68.00 114.69,70.01 114.56,72.00 114.47,73.98 114.40,75.95 114.36,77.92 114.34,79.88 114.35,81.82 114.39,83.75 114.46,85.68 114.55,87.59 114.67,89.51 114.81,91.41 114.99,93.28 115.19,95.16 115.42,97.05 115.68,98.95"/>
        <lane id="E1_3" index="3" speed="13.89" length="55.47" shape="115.64,42.55 115.16,44.65 114.71,46.79 114.28,48.94 113.87,51.06 113.50,53.18 113.15,55.29 112.83,57.38 112.54,59.47 112.28,61.55 112.04,63.63 111.83,65.69 111.64,67.74 111.50,69.79 111.37,71.82 111.27,73.85 111.20,75.86 111.16,77.87 111.14,79.87 111.15,81.86 111.19,83.84 111.26,85.81 111.36,87.77 111.48,89.73 111.62,91.68 111.80,93.60 112.01,95.53 112.25,97.46 112.51,99.37"/>
    </edge>
    <edge id="E2" from="J1" to="J3" priority="-1">
        <lane id="E2_0" index="0" speed="13.89" length="82.73" shape="130.84,34.57 212.44,48.23"/>
        <lane id="E2_1" index="1" speed="13.89" length="82.73" shape="130.31,37.72 211.91,51.39"/>
        <lane id="E2_2" index="2" speed="13.89" length="82.73" shape="129.78,40.88 211.38,54.54"/>
    </edge>
    <edge id="E3" from="J1" to="J4" priority="-1">
        <lane id="E3_0" index="0" speed="13.89" length="51.45" shape="109.63,26.51 121.72,-23.51"/>
        <lane id="E3_1" index="1" speed="13.89" length="51.45" shape="112.74,27.26 124.83,-22.75"/>
        <lane id="E3_2" index="2" speed="13.89" length="51.45" shape="115.85,28.01 127.94,-22.00"/>
    </edge>

    <junction id="J0" type="dead_end" x="13.83" y="48.51" incLanes="" intLanes="" shape="13.83,48.51 17.25,36.17"/>
    <junction id="J1" type="priority" x="114.61" y="39.96" incLanes="E0_0 E0_1 E0_2 E0_3" intLanes=":J1_0_0 :J1_0_1 :J1_0_2 :J1_3_0 :J1_3_1 :J1_3_2 :J1_6_0 :J1_6_1 :J1_6_2 :J1_6_3" shape="129.52,42.46 131.10,32.99 126.77,32.20 123.26,31.42 120.56,30.65 118.69,29.88 117.64,29.13 117.41,28.39 108.08,26.13 107.48,27.67 107.05,28.27 106.54,28.76 105.94,29.15 105.25,29.42 108.99,41.66 112.04,40.97 113.06,40.95 113.74,41.13 114.08,41.53 114.08,42.18 126.53,45.15 127.17,43.48 127.63,42.94 128.17,42.59 128.80,42.42">
        <request index="0" response="0000000000" foes="0000000000" cont="0"/>
        <request index="1" response="0000000000" foes="0000000000" cont="0"/>
        <request index="2" response="0000000000" foes="0000000000" cont="0"/>
        <request index="3" response="0000000000" foes="0000000000" cont="0"/>
        <request index="4" response="0000000000" foes="0000000000" cont="0"/>
        <request index="5" response="0000000000" foes="0000000000" cont="0"/>
        <request index="6" response="0000000000" foes="0000000000" cont="0"/>
        <request index="7" response="0000000000" foes="0000000000" cont="0"/>
        <request index="8" response="0000000000" foes="0000000000" cont="0"/>
        <request index="9" response="0000000000" foes="0000000000" cont="0"/>
    </junction>
    <junction id="J2" type="dead_end" x="110.92" y="99.59" incLanes="E1_0 E1_1 E1_2 E1_3" intLanes="" shape="123.60,97.88 110.92,99.59"/>
    <junction id="J3" type="dead_end" x="211.11" y="56.12" incLanes="E2_0 E2_1 E2_2" intLanes="" shape="212.70,46.65 211.11,56.12"/>
    <junction id="J4" type="dead_end" x="129.50" y="-21.63" incLanes="E3_0 E3_1 E3_2" intLanes="" shape="120.17,-23.88 129.50,-21.63"/>

    <connection from="E0" to="E3" fromLane="0" toLane="0" via=":J1_0_0" dir="r" state="M"/>
    <connection from="E0" to="E3" fromLane="0" toLane="1" via=":J1_0_1" dir="r" state="M"/>
    <connection from="E0" to="E3" fromLane="0" toLane="2" via=":J1_0_2" dir="r" state="M"/>
    <connection from="E0" to="E2" fromLane="0" toLane="0" via=":J1_3_0" dir="s" state="M"/>
    <connection from="E0" to="E2" fromLane="1" toLane="1" via=":J1_3_1" dir="s" state="M"/>
    <connection from="E0" to="E2" fromLane="2" toLane="2" via=":J1_3_2" dir="s" state="M"/>
    <connection from="E0" to="E1" fromLane="2" toLane="0" via=":J1_6_0" dir="l" state="M"/>
    <connection from="E0" to="E1" fromLane="3" toLane="1" via=":J1_6_1" dir="l" state="M"/>
    <connection from="E0" to="E1" fromLane="3" toLane="2" via=":J1_6_2" dir="l" state="M"/>
    <connection from="E0" to="E1" fromLane="3" toLane="3" via=":J1_6_3" dir="l" state="M"/>

    <connection from=":J1_0" to="E3" fromLane="0" toLane="0" dir="r" state="M"/>
    <connection from=":J1_0" to="E3" fromLane="1" toLane="1" dir="r" state="M"/>
    <connection from=":J1_0" to="E3" fromLane="2" toLane="2" dir="r" state="M"/>
    <connection from=":J1_3" to="E2" fromLane="0" toLane="0" dir="s" state="M"/>
    <connection from=":J1_3" to="E2" fromLane="1" toLane="1" dir="s" state="M"/>
    <connection from=":J1_3" to="E2" fromLane="2" toLane="2" dir="s" state="M"/>
    <connection from=":J1_6" to="E1" fromLane="0" toLane="0" dir="l" state="M"/>
    <connection from=":J1_6" to="E1" fromLane="1" toLane="1" dir="l" state="M"/>
    <connection from=":J1_6" to="E1" fromLane="2" toLane="2" dir="l" state="M"/>
    <connection from=":J1_6" to="E1" fromLane="3" toLane="3" dir="l" state="M"/>

</net>
