<?xml version="1.0" encoding="UTF-8"?>

<!-- generated on 2022-04-19 23:23:40 by Eclipse SUMO netconvert Version 1.12.0
<configuration xmlns:xsi="http://www.w3.org/2001/XMLSchema-instance" xsi:noNamespaceSchemaLocation="http://sumo.dlr.de/xsd/netconvertConfiguration.xsd">

    <input>
        <type-files value="/usr/share/sumo/data/typemap/osmNetconvert.typ.xml"/>
        <osm-files value="osm_bbox.osm.xml"/>
    </input>

    <output>
        <output-file value="osm.net.xml"/>
        <output.street-names value="true"/>
        <output.original-names value="true"/>
    </output>

    <projection>
        <proj.utm value="true"/>
    </projection>

    <processing>
        <geometry.remove value="true"/>
        <roundabouts.guess value="true"/>
    </processing>

    <tls_building>
        <tls.discard-simple value="true"/>
        <tls.join value="true"/>
        <tls.guess-signals value="true"/>
        <tls.default-type value="actuated"/>
    </tls_building>

    <ramp_guessing>
        <ramps.guess value="true"/>
    </ramp_guessing>

    <junctions>
        <junctions.join value="true"/>
        <junctions.corner-detail value="5"/>
    </junctions>

    <report>
        <verbose value="true"/>
        <aggregate-warnings value="5"/>
    </report>

</configuration>
-->

<net version="1.9" junctionCornerDetail="5" limitTurnSpeed="5.50" xmlns:xsi="http://www.w3.org/2001/XMLSchema-instance" xsi:noNamespaceSchemaLocation="http://sumo.dlr.de/xsd/net_file.xsd">

    <location netOffset="-666774.09,-5708258.86" convBoundary="0.00,0.00,1032.33,942.07" origBoundary="5.403061,51.500566,5.417824,51.509223" projParameter="+proj=utm +zone=31 +ellps=WGS84 +datum=WGS84 +units=m +no_defs"/>

    <type id="highway.bridleway" priority="1" numLanes="1" speed="2.78" allow="pedestrian" oneway="1" width="2.00"/>
    <type id="highway.bus_guideway" priority="1" numLanes="1" speed="27.78" allow="bus" oneway="1"/>
    <type id="highway.cycleway" priority="1" numLanes="1" speed="8.33" allow="bicycle" oneway="0" width="1.00"/>
    <type id="highway.footway" priority="1" numLanes="1" speed="2.78" allow="pedestrian" oneway="1" width="2.00"/>
    <type id="highway.ford" priority="1" numLanes="1" speed="2.78" allow="army" oneway="0"/>
    <type id="highway.living_street" priority="2" numLanes="1" speed="2.78" disallow="tram rail_urban rail rail_electric rail_fast ship" oneway="0"/>
    <type id="highway.motorway" priority="14" numLanes="2" speed="39.44" allow="private emergency authority army vip passenger hov taxi bus coach delivery truck trailer motorcycle evehicle custom1 custom2" oneway="1"/>
    <type id="highway.motorway_link" priority="9" numLanes="1" speed="22.22" allow="private emergency authority army vip passenger hov taxi bus coach delivery truck trailer motorcycle evehicle custom1 custom2" oneway="1"/>
    <type id="highway.path" priority="1" numLanes="1" speed="2.78" allow="pedestrian bicycle" oneway="0" width="2.00"/>
    <type id="highway.pedestrian" priority="1" numLanes="1" speed="2.78" allow="pedestrian" oneway="1" width="2.00"/>
    <type id="highway.primary" priority="12" numLanes="2" speed="27.78" disallow="tram rail_urban rail rail_electric rail_fast ship" oneway="0"/>
    <type id="highway.primary_link" priority="7" numLanes="1" speed="22.22" disallow="tram rail_urban rail rail_electric rail_fast ship" oneway="0"/>
    <type id="highway.raceway" priority="15" numLanes="2" speed="83.33" allow="vip" oneway="0"/>
    <type id="highway.residential" priority="3" numLanes="1" speed="13.89" disallow="tram rail_urban rail rail_electric rail_fast ship" oneway="0"/>
    <type id="highway.secondary" priority="11" numLanes="1" speed="27.78" disallow="tram rail_urban rail rail_electric rail_fast ship" oneway="0"/>
    <type id="highway.secondary_link" priority="6" numLanes="1" speed="22.22" disallow="tram rail_urban rail rail_electric rail_fast ship" oneway="0"/>
    <type id="highway.service" priority="1" numLanes="1" speed="5.56" allow="pedestrian delivery bicycle" oneway="0"/>
    <type id="highway.stairs" priority="1" numLanes="1" speed="1.39" allow="pedestrian" oneway="1" width="2.00"/>
    <type id="highway.step" priority="1" numLanes="1" speed="1.39" allow="pedestrian" oneway="1" width="2.00"/>
    <type id="highway.steps" priority="1" numLanes="1" speed="1.39" allow="pedestrian" oneway="1" width="2.00"/>
    <type id="highway.tertiary" priority="10" numLanes="1" speed="22.22" disallow="tram rail_urban rail rail_electric rail_fast ship" oneway="0"/>
    <type id="highway.tertiary_link" priority="5" numLanes="1" speed="22.22" disallow="tram rail_urban rail rail_electric rail_fast ship" oneway="0"/>
    <type id="highway.track" priority="1" numLanes="1" speed="5.56" allow="pedestrian motorcycle moped bicycle" oneway="0"/>
    <type id="highway.trunk" priority="13" numLanes="2" speed="27.78" disallow="pedestrian bicycle tram rail_urban rail rail_electric rail_fast ship" oneway="0"/>
    <type id="highway.trunk_link" priority="8" numLanes="1" speed="22.22" disallow="pedestrian bicycle tram rail_urban rail rail_electric rail_fast ship" oneway="0"/>
    <type id="highway.unclassified" priority="4" numLanes="1" speed="13.89" disallow="tram rail_urban rail rail_electric rail_fast ship" oneway="0"/>
    <type id="highway.unsurfaced" priority="1" numLanes="1" speed="8.33" disallow="tram rail_urban rail rail_electric rail_fast ship" oneway="0"/>
    <type id="railway.highspeed" priority="21" numLanes="1" speed="69.44" allow="rail_fast" oneway="1"/>
    <type id="railway.light_rail" priority="19" numLanes="1" speed="27.78" allow="rail_urban" oneway="1"/>
    <type id="railway.preserved" priority="16" numLanes="1" speed="27.78" allow="rail" oneway="1"/>
    <type id="railway.rail" priority="20" numLanes="1" speed="44.44" allow="rail" oneway="1"/>
    <type id="railway.subway" priority="18" numLanes="1" speed="27.78" allow="rail_urban" oneway="1"/>
    <type id="railway.tram" priority="17" numLanes="1" speed="13.89" allow="tram" oneway="1"/>

    <edge id=":1363697644_0" function="internal">
        <lane id=":1363697644_0_0" index="0" allow="bicycle" speed="6.83" length="4.00" width="1.00" shape="525.84,527.20 525.57,526.08 525.19,525.36 524.58,524.77 523.64,524.05"/>
    </edge>
    <edge id=":1363697644_1" function="internal">
        <lane id=":1363697644_1_0" index="0" allow="bicycle" speed="7.70" length="4.75" width="1.00" shape="525.84,527.20 525.68,525.83 525.81,524.87 526.22,523.96 526.95,522.76"/>
    </edge>
    <edge id=":1363697644_2" function="internal">
        <lane id=":1363697644_2_0" index="0" allow="bicycle" speed="2.04" length="1.46" width="1.00" shape="525.84,527.20 526.02,526.79 526.25,526.63 526.51,526.71 526.82,527.04"/>
    </edge>
    <edge id=":1363697644_3" function="internal">
        <lane id=":1363697644_3_0" index="0" allow="bicycle" speed="7.10" length="4.03" width="1.00" shape="527.81,523.28 527.18,524.30 526.82,525.06 526.70,525.88 526.82,527.04"/>
    </edge>
    <edge id=":1363697644_4" function="internal">
        <lane id=":1363697644_4_0" index="0" allow="bicycle" speed="4.54" length="4.96" width="1.00" shape="527.81,523.28 526.93,524.35 525.94,524.83 524.84,524.73 523.64,524.05"/>
    </edge>
    <edge id=":1363697644_5" function="internal">
        <lane id=":1363697644_5_0" index="0" allow="bicycle" speed="2.04" length="1.46" width="1.00" shape="527.81,523.28 527.40,523.47 527.12,523.45 526.97,523.21 526.95,522.76"/>
    </edge>
    <edge id=":1363697644_6" function="internal">
        <lane id=":1363697644_6_0" index="0" allow="bicycle" speed="3.72" length="3.22" width="1.00" shape="524.25,523.26 525.03,523.70 525.74,523.76 526.38,523.45 526.95,522.76"/>
    </edge>
    <edge id=":1363697644_7" function="internal">
        <lane id=":1363697644_7_0" index="0" allow="bicycle" speed="7.43" length="4.76" width="1.00" shape="524.25,523.26 525.36,524.12 526.07,524.83 526.52,525.69 526.82,527.04"/>
    </edge>
    <edge id=":1363697644_8" function="internal">
        <lane id=":1363697644_8_0" index="0" allow="bicycle" speed="2.04" length="1.46" width="1.00" shape="524.25,523.26 524.40,523.69 524.34,523.96 524.09,524.08 523.64,524.05"/>
    </edge>
    <edge id=":1572492642_0" function="internal">
        <lane id=":1572492642_0_0" index="0" allow="pedestrian delivery bicycle" speed="3.99" length="1.82" shape="579.65,558.35 579.43,557.93 579.13,557.62 578.75,557.42 578.28,557.32"/>
    </edge>
    <edge id=":1572492642_1" function="internal">
        <lane id=":1572492642_1_0" index="0" allow="pedestrian delivery bicycle" speed="5.56" length="5.46" shape="578.53,554.13 579.93,554.42 581.08,555.03 581.99,555.97 582.65,557.23"/>
    </edge>
    <edge id=":1572492662_0" function="internal">
        <lane id=":1572492662_0_0" index="0" allow="pedestrian delivery bicycle" speed="4.62" length="4.64" shape="575.27,595.37 574.36,594.72 573.42,594.65 572.46,595.17 571.47,596.27"/>
    </edge>
    <edge id=":1572492662_1" function="internal">
        <lane id=":1572492662_1_0" index="0" allow="pedestrian delivery bicycle" speed="5.56" length="8.56" shape="575.27,595.37 573.53,593.52 572.37,592.23 571.28,590.86 569.77,588.82"/>
    </edge>
    <edge id=":1572492662_2" function="internal">
        <lane id=":1572492662_2_0" index="0" allow="pedestrian delivery bicycle" speed="5.56" length="6.18" shape="575.27,595.37 574.12,593.85 573.96,592.68 574.81,591.86 576.66,591.38"/>
    </edge>
    <edge id=":1572492662_3" function="internal">
        <lane id=":1572492662_3_0" index="0" allow="pedestrian delivery bicycle" speed="5.04" length="6.32" shape="572.36,586.94 573.20,588.09 574.52,589.77 575.83,591.15 576.66,591.38"/>
    </edge>
    <edge id=":1572492662_4" function="internal">
        <lane id=":1572492662_4_0" index="0" allow="pedestrian delivery bicycle" speed="5.56" length="10.07" shape="572.36,586.94 573.40,589.03 573.60,591.28 572.96,593.69 571.47,596.27"/>
    </edge>
    <edge id=":1572492662_5" function="internal">
        <lane id=":1572492662_5_0" index="0" allow="pedestrian delivery bicycle" speed="3.65" length="4.67" shape="572.36,586.94 572.42,588.38 572.01,589.17 571.13,589.32 569.77,588.82"/>
    </edge>
    <edge id=":1572492662_6" function="internal">
        <lane id=":1572492662_6_0" index="0" allow="pedestrian delivery bicycle" speed="5.56" length="6.05" shape="568.87,594.41 569.85,592.77 570.33,591.29 570.30,589.98 569.77,588.82"/>
    </edge>
    <edge id=":1572492662_7" function="internal">
        <lane id=":1572492662_7_0" index="0" allow="pedestrian delivery bicycle" speed="5.56" length="8.76" shape="568.87,594.41 570.79,592.99 572.80,592.92 574.80,592.84 576.66,591.38"/>
    </edge>
    <edge id=":1572492662_8" function="internal">
        <lane id=":1572492662_8_0" index="0" allow="pedestrian delivery bicycle" speed="3.65" length="4.67" shape="568.87,594.41 570.22,593.90 571.10,594.04 571.52,594.83 571.47,596.27"/>
    </edge>
    <edge id=":1599931843_0" function="internal">
        <lane id=":1599931843_0_0" index="0" allow="bicycle" speed="3.51" length="3.21" shape="543.97,494.82 543.63,495.68 543.68,496.36 544.14,496.87 544.99,497.20"/>
    </edge>
    <edge id=":1599931843_1" function="internal">
        <lane id=":1599931843_1_0" index="0" allow="bicycle" speed="8.33" length="17.10" width="1.00" shape="543.97,494.82 535.65,509.76"/>
    </edge>
    <edge id=":1599931843_2" function="internal">
        <lane id=":1599931843_2_0" index="0" allow="bicycle" speed="2.04" length="1.46" width="1.00" shape="543.97,494.82 543.57,495.02 543.29,495.00 543.14,494.77 543.11,494.32"/>
    </edge>
    <edge id=":1599931843_3" function="internal">
        <lane id=":1599931843_3_0" index="0" allow="bicycle" speed="7.21" length="8.08" width="1.00" shape="535.43,495.35 538.34,495.66 540.59,495.60 542.18,495.15 543.11,494.32"/>
    </edge>
    <edge id=":1599931843_4" function="internal">
        <lane id=":1599931843_4_0" index="0" disallow="pedestrian tram rail_urban rail rail_electric rail_fast ship" speed="13.89" length="9.29" shape="535.26,496.44 544.74,498.27"/>
        <lane id=":1599931843_4_1" index="1" disallow="pedestrian tram rail_urban rail rail_electric rail_fast ship" speed="13.89" length="9.29" shape="534.77,499.60 544.01,501.39"/>
        <lane id=":1599931843_4_2" index="2" disallow="pedestrian tram rail_urban rail rail_electric rail_fast ship" speed="13.89" length="9.29" shape="534.28,502.76 543.28,504.50"/>
        <lane id=":1599931843_4_3" index="3" disallow="pedestrian tram rail_urban rail rail_electric rail_fast ship" speed="13.89" length="9.29" shape="533.79,505.92 542.55,507.62"/>
    </edge>
    <edge id=":1599931843_8" function="internal">
        <lane id=":1599931843_8_0" index="0" allow="bicycle" speed="4.32" length="4.25" width="1.00" shape="533.62,507.01 534.96,507.37 535.74,507.95 535.97,508.75 535.65,509.76"/>
    </edge>
    <edge id=":1599931843_9" function="internal">
        <lane id=":1599931843_9_0" index="0" allow="bicycle" speed="8.33" length="17.14" width="1.00" shape="534.77,509.29 543.11,494.32"/>
    </edge>
    <edge id=":1599931843_10" function="internal">
        <lane id=":1599931843_10_0" index="0" allow="bicycle" speed="7.04" length="9.21" shape="534.77,509.29 536.09,507.58 537.87,506.55 540.11,506.20 542.80,506.55"/>
    </edge>
    <edge id=":1599931843_11" function="internal">
        <lane id=":1599931843_11_0" index="0" allow="bicycle" speed="2.04" length="1.46" width="1.00" shape="534.77,509.29 535.16,509.08 535.44,509.09 535.60,509.31 535.65,509.76"/>
    </edge>
    <edge id=":1599931846_0" function="internal">
        <lane id=":1599931846_0_0" index="0" allow="bicycle" speed="6.40" length="4.78" width="1.00" shape="550.93,486.29 549.91,486.56 548.96,487.12 548.09,487.98 547.30,489.13"/>
    </edge>
    <edge id=":1599931846_1" function="internal">
        <lane id=":1599931846_1_0" index="0" allow="bicycle" speed="8.33" length="5.69" width="1.00" shape="550.93,486.29 549.25,486.47 548.10,486.56 546.94,486.58 545.26,486.59"/>
    </edge>
    <edge id=":1599931846_2" function="internal">
        <lane id=":1599931846_2_0" index="0" allow="bicycle" speed="2.04" length="0.73" width="1.00" shape="550.93,486.29 550.53,486.08 550.37,485.85"/>
    </edge>
    <edge id=":1599931846_9" function="internal">
        <lane id=":1599931846_9_0" index="0" allow="bicycle" speed="2.04" length="0.73" width="1.00" shape="550.37,485.85 550.47,485.59 550.81,485.30"/>
    </edge>
    <edge id=":1599931846_3" function="internal">
        <lane id=":1599931846_3_0" index="0" allow="bicycle" speed="8.33" length="5.58" width="1.00" shape="545.25,485.59 546.90,485.58 548.04,485.56 549.17,485.47 550.81,485.30"/>
    </edge>
    <edge id=":1599931846_4" function="internal">
        <lane id=":1599931846_4_0" index="0" allow="bicycle" speed="4.26" length="2.24" width="1.00" shape="545.25,485.59 546.93,485.80 547.37,486.13"/>
    </edge>
    <edge id=":1599931846_5" function="internal">
        <lane id=":1599931846_5_0" index="0" allow="bicycle" speed="2.04" length="0.73" width="1.00" shape="545.25,485.59 545.62,485.84 545.75,486.09"/>
    </edge>
    <edge id=":1599931846_10" function="internal">
        <lane id=":1599931846_10_0" index="0" allow="bicycle" speed="4.26" length="3.38" width="1.00" shape="547.37,486.13 547.83,486.46 547.95,487.57 547.30,489.13"/>
    </edge>
    <edge id=":1599931846_11" function="internal">
        <lane id=":1599931846_11_0" index="0" allow="bicycle" speed="2.04" length="0.73" width="1.00" shape="545.75,486.09 545.63,486.34 545.26,486.59"/>
    </edge>
    <edge id=":1599931846_6" function="internal">
        <lane id=":1599931846_6_0" index="0" allow="bicycle" speed="3.32" length="3.23" width="1.00" shape="546.43,488.63 546.81,487.73 546.74,487.09 546.22,486.71 545.26,486.59"/>
    </edge>
    <edge id=":1599931846_7" function="internal">
        <lane id=":1599931846_7_0" index="0" allow="bicycle" speed="6.97" length="5.70" width="1.00" shape="546.43,488.63 547.37,487.28 548.41,486.28 549.56,485.62 550.81,485.30"/>
    </edge>
    <edge id=":1599931846_8" function="internal">
        <lane id=":1599931846_8_0" index="0" allow="bicycle" speed="2.04" length="1.46" width="1.00" shape="546.43,488.63 546.84,488.43 547.12,488.45 547.27,488.68 547.30,489.13"/>
    </edge>
    <edge id=":1599931848_0" function="internal">
        <lane id=":1599931848_0_0" index="0" allow="bicycle" speed="2.04" length="1.46" width="1.00" shape="0.33,457.15 -0.11,457.22 -0.37,457.11 -0.45,456.84 -0.33,456.41"/>
    </edge>
    <edge id=":1606224794_0" function="internal">
        <lane id=":1606224794_0_0" index="0" disallow="pedestrian tram rail_urban rail rail_electric rail_fast ship" speed="13.44" length="14.08" shape="590.95,510.51 592.16,514.26 593.03,516.98 594.49,519.18 597.51,521.40"/>
        <lane id=":1606224794_0_1" index="1" disallow="pedestrian tram rail_urban rail rail_electric rail_fast ship" speed="13.89" length="14.08" shape="588.09,512.00 589.53,516.23 590.63,519.24 592.41,521.67 595.90,524.16"/>
    </edge>
    <edge id=":1606224794_2" function="internal">
        <lane id=":1606224794_2_0" index="0" disallow="pedestrian tram rail_urban rail rail_electric rail_fast ship" speed="13.89" length="13.90" shape="585.14,514.88 597.51,521.40"/>
        <lane id=":1606224794_2_1" index="1" disallow="pedestrian tram rail_urban rail rail_electric rail_fast ship" speed="13.89" length="13.90" shape="583.67,517.73 595.90,524.16"/>
    </edge>
    <edge id=":1606224802_0" function="internal">
        <lane id=":1606224802_0_0" index="0" disallow="pedestrian tram rail_urban rail rail_electric rail_fast ship" speed="13.89" length="8.13" shape="610.32,529.14 612.49,530.21 614.14,530.62 615.77,531.06 617.89,532.22"/>
        <lane id=":1606224802_0_1" index="1" disallow="pedestrian tram rail_urban rail rail_electric rail_fast ship" speed="13.89" length="8.13" shape="610.32,529.14 612.20,530.62 613.23,531.94 614.25,533.29 616.07,534.85"/>
        <lane id=":1606224802_0_2" index="2" disallow="pedestrian tram rail_urban rail rail_electric rail_fast ship" speed="13.89" length="8.13" shape="608.62,531.85 610.46,533.30 611.47,534.61 612.46,535.94 614.25,537.48"/>
    </edge>
    <edge id=":1606224813_0" function="internal">
        <lane id=":1606224813_0_0" index="0" disallow="pedestrian tram rail_urban rail rail_electric rail_fast ship" speed="13.89" length="11.30" shape="593.09,489.19 591.35,491.98 590.63,494.15 590.40,496.51 590.15,499.86"/>
        <lane id=":1606224813_0_1" index="1" disallow="pedestrian tram rail_urban rail rail_electric rail_fast ship" speed="13.89" length="12.55" shape="590.48,487.33 588.52,490.42 587.64,492.81 587.32,495.40 587.01,499.12"/>
    </edge>
    <edge id=":1606224813_2" function="internal">
        <lane id=":1606224813_2_0" index="0" disallow="tram rail_urban rail rail_electric rail_fast ship" speed="13.89" length="13.06" shape="587.88,485.47 586.12,488.83 585.63,491.51 585.15,494.19 583.42,497.58"/>
        <lane id=":1606224813_2_1" index="1" disallow="tram rail_urban rail rail_electric rail_fast ship" speed="13.89" length="13.06" shape="585.28,483.61 583.51,486.98 583.01,489.66 582.53,492.35 580.80,495.75"/>
    </edge>
    <edge id=":1607794570_0" function="internal">
        <lane id=":1607794570_0_0" index="0" disallow="pedestrian tram rail_urban rail rail_electric rail_fast ship" speed="13.89" length="8.31" shape="451.87,478.92 454.11,479.53 455.84,479.16 457.60,478.74 459.92,479.19"/>
        <lane id=":1607794570_0_1" index="1" disallow="pedestrian tram rail_urban rail rail_electric rail_fast ship" speed="13.89" length="8.31" shape="450.39,481.75 452.69,482.40 454.47,482.06 456.28,481.66 458.67,482.13"/>
        <lane id=":1607794570_0_2" index="2" disallow="pedestrian tram rail_urban rail rail_electric rail_fast ship" speed="13.89" length="8.31" shape="450.39,481.75 457.42,485.08"/>
        <lane id=":1607794570_0_3" index="3" disallow="pedestrian tram rail_urban rail rail_electric rail_fast ship" speed="13.89" length="8.31" shape="450.39,481.75 452.33,483.33 453.22,485.01 454.14,486.62 456.17,488.03"/>
    </edge>
    <edge id=":1631824455_0" function="internal">
        <lane id=":1631824455_0_0" index="0" allow="pedestrian delivery bicycle" speed="3.65" length="4.67" shape="684.13,480.70 682.73,481.02 681.87,480.77 681.56,479.93 681.80,478.51"/>
    </edge>
    <edge id=":1708104363_0" function="internal">
        <lane id=":1708104363_0_0" index="0" allow="bicycle" speed="2.04" length="1.46" width="1.00" shape="21.09,466.70 20.64,466.76 20.38,466.65 20.32,466.38 20.44,465.94"/>
    </edge>
    <edge id=":1931312865_0" function="internal">
        <lane id=":1931312865_0_0" index="0" allow="pedestrian delivery bicycle" speed="3.96" length="1.97" shape="756.24,356.80 756.63,357.15 756.86,357.56 756.94,358.01 756.86,358.53"/>
    </edge>
    <edge id=":2130832620_0" function="internal">
        <lane id=":2130832620_0_0" index="0" allow="pedestrian delivery bicycle" speed="5.56" length="10.62" shape="755.42,363.78 754.67,366.75 754.24,368.95 753.89,371.17 753.38,374.19"/>
    </edge>
    <edge id=":2130832620_1" function="internal">
        <lane id=":2130832620_1_0" index="0" allow="pedestrian delivery bicycle" speed="5.56" length="10.64" shape="755.42,363.78 754.41,366.64 753.24,368.53 751.78,370.29 749.90,372.75"/>
    </edge>
    <edge id=":2822878600_0" function="internal">
        <lane id=":2822878600_0_0" index="0" allow="pedestrian delivery bicycle" speed="3.65" length="4.67" shape="761.92,366.83 763.21,366.17 764.10,366.22 764.60,366.96 764.71,368.40"/>
    </edge>
    <edge id=":292133246_0" function="internal">
        <lane id=":292133246_0_0" index="0" allow="bicycle" speed="2.04" length="1.46" width="1.00" shape="254.87,941.25 254.43,941.32 254.17,941.22 254.09,940.95 254.20,940.51"/>
    </edge>
    <edge id=":42821278_0" function="internal">
        <lane id=":42821278_0_0" index="0" disallow="tram rail_urban rail rail_electric rail_fast ship" speed="3.65" length="4.67" shape="576.46,129.62 577.78,129.06 578.67,129.16 579.12,129.93 579.13,131.38"/>
    </edge>
    <edge id=":42830109_0" function="internal">
        <lane id=":42830109_0_0" index="0" disallow="pedestrian tram rail_urban rail rail_electric rail_fast ship" speed="3.72" length="4.61" shape="299.78,389.17 299.26,387.84 299.39,386.97 300.17,386.55 301.59,386.58"/>
    </edge>
    <edge id=":42835217_0" function="internal">
        <lane id=":42835217_0_0" index="0" disallow="tram rail_urban rail rail_electric rail_fast ship" speed="6.51" length="9.02" shape="379.57,546.93 377.96,545.06 376.14,544.15 374.10,544.20 371.85,545.22"/>
    </edge>
    <edge id=":42835217_1" function="internal">
        <lane id=":42835217_1_0" index="0" disallow="tram rail_urban rail rail_electric rail_fast ship" speed="8.33" length="14.34" shape="379.57,546.93 372.02,534.74"/>
    </edge>
    <edge id=":42835217_2" function="internal">
        <lane id=":42835217_2_0" index="0" disallow="tram rail_urban rail rail_electric rail_fast ship" speed="3.65" length="4.67" shape="379.57,546.93 379.60,545.49 380.06,544.72 380.95,544.63 382.27,545.21"/>
    </edge>
    <edge id=":42835217_3" function="internal">
        <lane id=":42835217_3_0" index="0" disallow="tram rail_urban rail rail_electric rail_fast ship" speed="8.33" length="14.25" shape="374.77,533.10 382.27,545.21"/>
    </edge>
    <edge id=":42835217_4" function="internal">
        <lane id=":42835217_4_0" index="0" disallow="tram rail_urban rail rail_electric rail_fast ship" speed="8.06" length="14.14" shape="374.77,533.10 376.26,536.64 376.27,539.84 374.80,542.70 371.85,545.22"/>
    </edge>
    <edge id=":42835217_5" function="internal">
        <lane id=":42835217_5_0" index="0" disallow="tram rail_urban rail rail_electric rail_fast ship" speed="3.65" length="4.67" shape="374.77,533.10 374.70,534.54 374.22,535.29 373.33,535.36 372.02,534.74"/>
    </edge>
    <edge id=":42835217_6" function="internal">
        <lane id=":42835217_6_0" index="0" disallow="tram rail_urban rail rail_electric rail_fast ship" speed="6.58" length="9.07" shape="370.13,542.52 372.03,540.90 372.98,539.07 372.98,537.01 372.02,534.74"/>
    </edge>
    <edge id=":42835217_7" function="internal">
        <lane id=":42835217_7_0" index="0" disallow="tram rail_urban rail rail_electric rail_fast ship" speed="8.00" length="14.17" shape="370.13,542.52 373.67,540.92 376.87,540.84 379.74,542.27 382.27,545.21"/>
    </edge>
    <edge id=":42835217_8" function="internal">
        <lane id=":42835217_8_0" index="0" disallow="tram rail_urban rail rail_electric rail_fast ship" speed="3.65" length="4.67" shape="370.13,542.52 371.58,542.55 372.34,543.01 372.43,543.90 371.85,545.22"/>
    </edge>
    <edge id=":42836235_0" function="internal">
        <lane id=":42836235_0_0" index="0" disallow="tram rail_urban rail rail_electric rail_fast ship" speed="3.67" length="4.64" shape="469.71,642.79 468.33,643.19 467.47,642.99 467.12,642.17 467.27,640.75"/>
    </edge>
    <edge id=":42836806_0" function="internal">
        <lane id=":42836806_0_0" index="0" disallow="tram rail_urban rail rail_electric rail_fast ship" speed="8.33" length="14.12" shape="406.52,589.87 399.27,577.76"/>
    </edge>
    <edge id=":42836806_1" function="internal">
        <lane id=":42836806_1_0" index="0" disallow="tram rail_urban rail rail_electric rail_fast ship" speed="8.16" length="14.12" shape="406.52,589.87 405.16,586.32 405.24,583.11 406.75,580.25 409.70,577.74"/>
    </edge>
    <edge id=":42836806_2" function="internal">
        <lane id=":42836806_2_0" index="0" disallow="tram rail_urban rail rail_electric rail_fast ship" speed="3.65" length="4.67" shape="406.52,589.87 406.64,588.43 407.14,587.69 408.03,587.65 409.32,588.31"/>
    </edge>
    <edge id=":42836806_3" function="internal">
        <lane id=":42836806_3_0" index="0" disallow="tram rail_urban rail rail_electric rail_fast ship" speed="6.69" length="9.18" shape="411.43,580.43 409.50,582.07 408.50,583.93 408.44,586.01 409.32,588.31"/>
    </edge>
    <edge id=":42836806_4" function="internal">
        <lane id=":42836806_4_0" index="0" disallow="tram rail_urban rail rail_electric rail_fast ship" speed="8.00" length="14.19" shape="411.43,580.43 407.88,582.04 404.68,582.13 401.81,580.70 399.27,577.76"/>
    </edge>
    <edge id=":42836806_5" function="internal">
        <lane id=":42836806_5_0" index="0" disallow="tram rail_urban rail rail_electric rail_fast ship" speed="3.65" length="4.67" shape="411.43,580.43 409.98,580.41 409.22,579.95 409.12,579.06 409.70,577.74"/>
    </edge>
    <edge id=":42836806_6" function="internal">
        <lane id=":42836806_6_0" index="0" disallow="tram rail_urban rail rail_electric rail_fast ship" speed="6.51" length="9.03" shape="401.97,576.03 403.58,577.91 405.41,578.82 407.45,578.76 409.70,577.74"/>
    </edge>
    <edge id=":42836806_7" function="internal">
        <lane id=":42836806_7_0" index="0" disallow="tram rail_urban rail rail_electric rail_fast ship" speed="8.33" length="14.30" shape="401.97,576.03 409.32,588.31"/>
    </edge>
    <edge id=":42836806_8" function="internal">
        <lane id=":42836806_8_0" index="0" disallow="tram rail_urban rail rail_electric rail_fast ship" speed="3.65" length="4.67" shape="401.97,576.03 401.94,577.48 401.48,578.24 400.59,578.34 399.27,577.76"/>
    </edge>
    <edge id=":42837957_0" function="internal">
        <lane id=":42837957_0_0" index="0" allow="pedestrian delivery bicycle" speed="3.65" length="4.67" shape="462.51,649.75 461.96,648.42 462.07,647.53 462.85,647.09 464.29,647.10"/>
    </edge>
    <edge id=":42839015_0" function="internal">
        <lane id=":42839015_0_0" index="0" disallow="tram rail_urban rail rail_electric rail_fast ship" speed="3.65" length="4.67" shape="310.16,656.14 308.72,656.05 307.98,655.55 307.92,654.66 308.57,653.37"/>
    </edge>
    <edge id=":42849539_0" function="internal">
        <lane id=":42849539_0_0" index="0" disallow="tram rail_urban rail rail_electric rail_fast ship" speed="3.65" length="4.67" shape="234.71,941.91 234.04,943.18 233.28,943.66 232.45,943.34 231.53,942.23"/>
    </edge>
    <edge id=":457018871_0" function="internal">
        <lane id=":457018871_0_0" index="0" allow="bicycle" speed="8.33" length="0.30" width="1.00" shape="574.72,475.58 574.67,475.65 574.64,475.70 574.60,475.75 574.53,475.81"/>
    </edge>
    <edge id=":457018871_1" function="internal">
        <lane id=":457018871_1_0" index="0" allow="bicycle" speed="8.33" length="0.10" width="1.00" shape="573.83,475.10 573.85,475.08 573.86,475.06 573.87,475.05 573.89,475.02"/>
    </edge>
    <edge id=":457018875_0" function="internal">
        <lane id=":457018875_0_0" index="0" allow="bicycle" speed="8.33" length="0.10" width="1.00" shape="629.40,393.35 629.38,393.38"/>
    </edge>
    <edge id=":457018875_1" function="internal">
        <lane id=":457018875_1_0" index="0" allow="bicycle" speed="8.33" length="0.10" width="1.00" shape="628.55,392.82 628.53,392.86"/>
    </edge>
    <edge id=":5236002744_0" function="internal">
        <lane id=":5236002744_0_0" index="0" disallow="tram rail_urban rail rail_electric rail_fast ship" speed="4.41" length="1.04" shape="443.19,559.11 443.04,558.84 442.90,558.68 442.73,558.55 442.45,558.42"/>
    </edge>
    <edge id=":5236002744_1" function="internal">
        <lane id=":5236002744_1_0" index="0" disallow="tram rail_urban rail rail_electric rail_fast ship" speed="7.05" length="3.11" shape="443.81,555.52 444.63,555.93 445.15,556.30 445.55,556.80 446.00,557.59"/>
    </edge>
    <edge id=":5236002748_0" function="internal">
        <lane id=":5236002748_0_0" index="0" disallow="tram rail_urban rail rail_electric rail_fast ship" speed="8.33" length="7.62" shape="432.07,570.74 429.80,570.86 428.17,570.78 426.66,570.99 424.70,571.95"/>
    </edge>