<?xml version="1.0" encoding="UTF-8"?>

<!-- generated on 2022-04-19 23:23:40 by Eclipse SUMO polyconvert Version 1.12.0
<configuration xmlns:xsi="http://www.w3.org/2001/XMLSchema-instance" xsi:noNamespaceSchemaLocation="http://sumo.dlr.de/xsd/polyconvertConfiguration.xsd">

    <input>
        <net-file value="osm.net.xml"/>
        <osm-files value="osm_bbox.osm.xml"/>
        <osm.keep-full-type value="true"/>
        <type-file value="/usr/share/sumo/data/typemap/osmPolyconvert.typ.xml"/>
    </input>

    <output>
        <output-file value="osm.poly.xml"/>
    </output>

    <processing>
        <poi-layer-offset value="5"/>
    </processing>

    <report>
        <verbose value="true"/>
    </report>

</configuration>
-->

<additional xmlns:xsi="http://www.w3.org/2001/XMLSchema-instance" xsi:noNamespaceSchemaLocation="http://sumo.dlr.de/xsd/additional_file.xsd">
    <location netOffset="-666774.09,-5708258.86" convBoundary="-2856.53,-869.51,1076.18,2740.36" origBoundary="5.361971,51.493276,5.418406,51.525724" projParameter="+proj=utm +zone=31 +ellps=WGS84 +datum=WGS84 +units=m +no_defs"/>

    <poly id="1013987231" type="building.construction" color="255,230,230" fill="1" layer="-1.00" shape="351.017225,340.311849 399.097463,372.560962 431.241309,324.642098 402.015289,305.035072 380.953815,336.432915 362.099747,323.779488 351.017225,340.311849"/>
    <poly id="143628873" type="landuse.grass" color="194,194,130" fill="1" layer="-3.00" shape="609.454324,557.779511 596.123514,546.620704 588.912919,541.774701 587.691838,546.365036 587.401741,547.368414 585.795595,549.942439 595.224059,573.907052 594.226783,579.083586 577.290496,600.810021 549.703715,632.915991 527.992350,651.156979 510.712441,663.299451 491.182320,670.792922 473.475832,661.939145 340.983046,859.796769 280.244411,949.563300 281.812063,950.894971 270.843504,966.963680 310.879740,996.943997 350.096077,950.749172 399.182952,892.757753 455.303194,825.826310 510.005131,753.917559 637.431692,605.497540 639.379579,598.037062 638.214270,591.664976 633.639950,583.343838 625.073012,572.865187 609.454324,557.779511"/>
    <poly id="143690296" type="landuse.grass" color="194,194,130" fill="1" layer="-3.00" shape="486.673985,650.975566 554.609084,547.935034 556.643923,545.842639 559.064053,543.863123 561.494210,543.687195 575.268472,545.187501 587.401741,547.368414 585.795595,549.942439 559.635706,546.330829 553.663399,552.601239 549.665556,574.631725 561.138777,590.304116 565.150164,587.887274 567.187399,590.358759 567.675406,592.834840 567.513420,594.588233 566.765993,596.400249 546.972587,620.514870 533.676874,633.378525 516.571634,647.385648 499.701890,659.307916 495.983961,660.621353 489.523447,660.842632 485.312032,659.423806 476.312495,653.216676 473.351292,650.536693 472.008704,647.642880 471.953881,644.246058 473.425579,641.322506 502.325281,607.511806 523.259160,582.510708 548.664567,547.249361 552.558270,542.502207 555.621236,539.987314 559.308354,537.504123 565.752506,534.833519 571.405739,534.240653 576.063245,534.984114 580.239659,536.624481 585.506797,539.736730 588.912919,541.774701 587.713388,546.343484 575.435863,544.113290 565.407539,543.192819 559.491826,542.897675 557.733244,543.563247 554.014618,547.002685 551.818258,549.991386 485.904907,650.493851 486.673985,650.975566"/>
    <poly id="266551772" type="building.house" color="255,230,230" fill="1" layer="-1.00" shape="382.658677,524.361185 387.745276,521.144764 389.432725,523.905197 391.469632,522.591990 394.283384,520.892507 390.993920,515.730648 388.906597,512.456146 386.154197,514.191046 379.031418,518.698441 382.658677,524.361185"/>
    <poly id="266551806" type="building.house" color="255,230,230" fill="1" layer="-1.00" shape="363.726939,595.968230 360.271893,598.158652 358.138579,594.804729 350.935945,599.420841 354.680018,605.332298 359.674485,602.168476 361.272092,604.703321 368.494814,600.110147 366.037968,596.244667 364.281629,596.843590 363.726939,595.968230"/>
    <poly id="266551810" type="building.house" color="255,230,230" fill="1" layer="-1.00" shape="373.946512,572.929157 371.424599,574.627126 374.792547,579.936263 378.219489,577.756055 380.167659,580.825612 387.248722,576.316848 383.497722,570.405139 381.036076,571.960382 379.418015,569.413727 373.946512,572.929157"/>
    <poly id="266551817" type="building.house" color="255,230,230" fill="1" layer="-1.00" shape="399.909398,614.167883 397.911082,612.833132 394.024067,618.649208 399.352537,622.219661 401.303351,619.300734 405.442397,622.075110 409.607383,615.834078 406.385687,613.679857 406.934300,612.840820 402.672175,610.006734 399.909398,614.167883"/>
    <poly id="266551826" type="building.yes" color="255,230,230" fill="1" layer="-1.00" shape="439.108961,523.871231 431.875834,528.564151 434.315514,532.317786 430.624448,534.711885 431.880256,536.656674 430.623848,537.472401 434.815224,543.932946 439.054873,541.122800 438.234344,539.882478 442.317677,537.178499 440.670046,534.686506 444.494424,532.252280 439.108961,523.871231"/>
    <poly id="266551867" type="building.house" color="255,230,230" fill="1" layer="-1.00" shape="399.819767,529.122637 397.165348,524.927833 400.527688,522.812298 397.873266,518.617494 394.283384,520.892507 391.502497,522.648728 393.082229,525.093944 389.512439,527.391884 388.802962,530.373947 390.871290,533.592168 392.312767,533.906774 399.819767,529.122637"/>
    <poly id="266551875" type="building.house" color="255,230,230" fill="1" layer="-1.00" shape="384.365454,632.033707 388.518376,634.808526 390.461874,631.900486 394.594342,634.663506 398.752000,628.433356 395.461285,626.265738 396.009528,625.437818 391.813870,622.694980 389.015315,626.888349 386.792776,625.401514 382.979198,631.097573 384.365454,632.033707"/>
    <poly id="266551897" type="building.house" color="255,230,230" fill="1" layer="-1.00" shape="383.549877,504.042714 383.805542,503.873032 381.152560,499.633761 378.682112,501.244373 374.586311,494.831551 369.591369,498.006479 369.265993,497.550521 365.831334,499.752745 370.647265,507.291252 373.996457,505.153005 376.228766,508.666028 383.549877,504.042714"/>
    <poly id="266551943" type="building.house" color="255,230,230" fill="1" layer="-1.00" shape="391.740207,588.853736 390.149182,586.330230 382.145195,591.443082 383.185725,590.853992 385.741522,594.878576 387.454766,594.322765 387.976588,595.141390 391.303818,593.035827 393.159586,595.957642 400.492626,591.601899 396.734714,585.689950 391.740207,588.853736"/>
    <poly id="266551955" type="building.house" color="255,230,230" fill="1" layer="-1.00" shape="435.549167,583.450594 433.804458,584.539650 429.329773,577.401902 426.391850,579.286507 426.859987,580.047713 427.209446,580.615780 425.294907,581.799427 420.018057,585.098595 422.864865,589.566898 424.800949,588.361697 425.705821,589.782894 427.323852,592.329564 428.162261,593.659523 428.417557,593.500962 433.404779,590.348103 436.427065,588.432887 438.051613,587.406662 435.549167,583.450594"/>
    <poly id="266551958" type="building.house" color="255,230,230" fill="1" layer="-1.00" shape="363.514807,488.879242 365.561863,488.735133 365.771198,492.927349 379.696151,488.799695 379.469210,485.775673 370.986976,486.420331 370.395155,478.653545 373.236571,478.435407 372.912570,474.139235 366.331657,474.634999 366.629386,478.674289 361.004631,479.034566 361.705878,488.964403 363.514807,488.879242"/>
    <poly id="266551974" type="building.house" color="255,230,230" fill="1" layer="-1.00" shape="450.980670,540.113030 452.220620,539.586177 453.478520,542.521717 448.419746,544.681527 450.766484,550.201971 452.450183,549.489371 455.416917,556.432768 463.322268,553.053242 459.375518,543.806798 457.811244,544.478804 456.495657,541.396657 460.293303,539.774140 458.132788,534.716204 450.135740,538.137243 450.980670,540.113030"/>
    <poly id="266552019" type="building.house" color="255,230,230" fill="1" layer="-1.00" shape="415.134604,556.831528 417.603208,555.276530 416.011450,552.775254 413.509683,549.008451 412.760005,547.725942 412.397030,547.146299 408.826895,549.243852 412.510342,554.886208 409.336104,556.985666 405.114390,559.673982 408.364370,564.767766 407.967365,565.010711 408.528624,565.897424 408.911752,565.654022 410.462606,568.131687 418.871702,562.742805 415.134604,556.831528"/>
    <poly id="266552049" type="building.house" color="255,230,230" fill="1" layer="-1.00" shape="428.826118,547.765210 428.421439,548.030164 425.868925,544.116978 422.491612,546.265397 421.342801,544.446577 419.689389,545.505251 418.698693,543.947655 412.760005,547.725942 413.509683,549.008451 416.011450,552.775254 417.603208,555.276530 417.097827,554.380524 417.331941,554.232396 416.255066,552.549520 419.412137,550.549683 422.628147,555.620095 430.233392,550.805844 429.076182,549.031270 429.473556,548.777207 428.826118,547.765210"/>
    <poly id="266552050" type="building.house" color="255,230,230" fill="1" layer="-1.00" shape="392.312767,533.906774 393.036976,534.064192 392.495199,536.172412 393.980341,538.536595 395.557670,538.944725 396.391854,538.504680 398.372894,541.630981 398.252650,542.751272 399.298965,543.041739 399.767842,543.780704 400.598381,543.240359 402.089527,543.523210 404.033660,542.284872 404.427840,540.861927 406.286876,539.676444 405.527326,538.482660 408.232749,535.009759 406.271430,531.917496 402.922972,534.033484 399.819767,529.122637 392.312767,533.906774"/>
    <poly id="266552167" type="building.yes" color="255,230,230" fill="1" layer="-1.00" shape="438.225616,589.716550 443.573743,598.174291 446.964545,596.037464 441.609483,587.579490 438.225616,589.716550"/>
    <poly id="266552252" type="building.yes" color="255,230,230" fill="1" layer="-1.00" shape="390.131218,605.864877 384.752878,609.294311 386.668532,612.296013 392.046870,608.866581 390.131218,605.864877"/>
    <poly id="266552261" type="building.yes" color="255,230,230" fill="1" layer="-1.00" shape="418.725045,525.637712 423.809648,533.452272 429.140617,529.987920 426.033039,525.210486 425.656847,525.454116 424.876848,524.248524 426.062402,523.474987 424.865746,521.632329 418.725045,525.637712"/>
    <poly id="266552269" type="building.yes" color="255,230,230" fill="1" layer="-1.00" shape="359.708937,570.100664 362.525580,568.312210 358.662789,562.419103 355.880107,564.230939 359.708937,570.100664"/>
    <poly id="266552314" type="building.yes" color="255,230,230" fill="1" layer="-1.00" shape="450.867414,532.373119 453.035268,528.982716 450.035196,527.058393 447.874282,530.449026 445.589548,534.013682 448.589983,535.926883 450.867414,532.373119"/>
    <poly id="266552347" type="building.yes" color="255,230,230" fill="1" layer="-1.00" shape="432.718736,511.616839 431.916274,512.569958 431.604712,512.960421 432.153230,513.390338 434.924290,515.730093 436.319558,514.072969 437.627896,512.524294 434.309415,509.721263 432.718736,511.616839"/>
    <poly id="266552391" type="building.house" color="255,230,230" fill="1" layer="-1.00" shape="395.233356,599.220571 391.849152,601.368781 393.665113,604.233629 404.250894,597.502731 400.492626,591.601899 393.159586,595.957642 395.233356,599.220571"/>
    <poly id="266552462" type="building.house" color="255,230,230" fill="1" layer="-1.00" shape="376.228766,508.666028 377.958958,511.394471 375.404516,513.024582 379.031418,518.698441 386.154197,514.191046 388.906597,512.456146 383.549877,504.042714 376.228766,508.666028"/>
    <poly id="266552547" type="building.house" color="255,230,230" fill="1" layer="-1.00" shape="379.041991,557.836044 375.284027,551.924113 368.061600,556.506158 368.121123,556.597167 364.743477,558.756743 366.500680,561.508334 369.991545,559.285700 371.939727,562.355253 379.041991,557.836044"/>
    <poly id="266552550" type="building.house" color="255,230,230" fill="1" layer="-1.00" shape="354.748490,530.655431 362.144331,542.542097 362.307223,542.447278 361.871572,541.753935 363.786841,540.548026 364.215918,541.230021 368.047557,538.784848 360.516953,526.982787 354.748490,530.655431"/>
    <poly id="266552552" type="building.house" color="255,230,230" fill="1" layer="-1.00" shape="382.247650,584.111002 378.856504,586.258992 382.145195,591.443082 390.149182,586.330230 388.545008,583.784029 390.992774,582.228333 387.248722,576.316848 380.167659,580.825612 382.247650,584.111002"/>
    <poly id="266552573" type="building.house" color="255,230,230" fill="1" layer="-1.00" shape="371.939727,562.355253 373.940857,565.504468 370.585130,567.631368 373.946512,572.929157 379.418015,569.413727 377.806525,566.878421 382.793006,563.747750 379.041991,557.836044 371.939727,562.355253"/>
    <poly id="266552597" type="building.house" color="255,230,230" fill="1" layer="-1.00" shape="364.201435,614.684243 367.952419,620.595939 370.372406,619.039320 371.998124,621.563962 373.417026,620.664522 380.100298,616.420936 376.593619,610.895733 373.187882,613.065508 371.325537,610.132353 364.201435,614.684243"/>
    <poly id="266552602" type="building.house" color="255,230,230" fill="1" layer="-1.00" shape="361.272092,604.703321 362.876637,607.238394 360.450441,608.772550 364.201435,614.684243 371.325537,610.132353 369.324425,606.983138 372.744409,604.802698 369.395829,599.538724 368.494814,600.110147 361.272092,604.703321"/>
    <poly id="266552625" type="building.house" color="255,230,230" fill="1" layer="-1.00" shape="440.387476,583.554277 443.181684,587.931810 450.114517,583.496168 448.958420,581.688232 454.677597,578.036333 449.227576,569.508437 440.954691,574.768182 442.098379,576.531182 437.692220,579.335841 440.387476,583.554277"/>
    <poly id="267866495" type="building.yes" color="255,230,230" fill="1" layer="-1.00" shape="696.841407,377.096088 696.227703,378.010870 698.980902,379.838146 697.161339,382.560938 694.415081,380.733893 693.655257,381.866480 706.311397,390.320650 710.727535,383.642872 711.808140,384.368651 716.257153,377.747618 717.188396,378.368290 724.063404,368.120588 723.520364,367.735345 723.812240,367.310855 723.445588,367.053874 729.722255,357.676939 722.810221,353.040967 722.671039,353.259000 719.027854,350.823531 719.173975,350.605727 715.979613,348.463346 709.709901,357.840526 709.335941,357.594435 709.072556,357.997603 709.439577,358.243465 707.320088,361.423873 706.946494,361.166664 704.936598,364.183720 705.310558,364.429810 700.421722,371.748744 700.047762,371.502654 697.782530,374.889752 698.149550,375.135613 696.841407,377.096088"/>
    <poly id="267866516" type="building.yes" color="255,230,230" fill="1" layer="-1.00" shape="694.415081,380.733893 697.161339,382.560938 698.980902,379.838146 696.227703,378.010870 694.415081,380.733893"/>
    <poly id="268444882" type="building.retail" color="255,230,230" fill="1" layer="-1.00" shape="301.587262,346.321184 300.250782,348.303083 302.404811,349.765355 300.944509,351.921278 353.523913,387.412459 362.445090,374.070401 358.218160,371.215263 362.250319,365.003208 387.068424,381.760027 394.895713,370.207524 369.909580,353.278171 368.989477,354.639282 318.761813,320.505427 305.117516,340.582345 305.457165,340.816144 301.587262,346.321184"/>
    <poly id="341651307" type="building.retail" color="255,230,230" fill="1" layer="-1.00" shape="496.477003,426.359206 496.586585,426.195848 496.199109,425.938197 488.952817,421.113437 489.844453,419.773672 489.409500,419.481064 490.118500,418.413562 490.553819,418.695051 490.882567,418.204976 496.156413,410.364244 497.121109,408.915574 496.869851,408.740329 497.499592,407.759266 497.771667,407.935197 504.781712,397.368868 509.391280,400.414840 514.259357,393.083923 513.790439,392.767931 514.916232,391.068554 515.385150,391.384546 521.159871,382.680973 520.704098,382.387677 521.838300,380.644053 522.300646,380.948698 527.154146,373.639573 522.571587,370.616739 529.903911,359.549023 529.659225,359.385124 530.309796,358.404751 530.554482,358.568650 531.131995,357.697182 544.297974,337.827688 544.046714,337.652440 544.717375,336.694994 544.968635,336.870241 559.026754,315.649907 561.881925,317.547252 561.969595,317.416566 562.832410,316.109255 576.201708,295.979384 577.042613,294.704746 591.771649,272.527056 528.099133,230.256331 498.628746,274.789789 498.438471,274.661078 434.857668,370.510371 428.922695,366.574857 424.054724,373.905854 424.306352,374.069976 440.791738,385.020495 420.696406,415.348002 420.564177,415.566272 420.952024,415.812797 431.951939,423.098611 433.311954,423.989367 463.612310,444.066121 478.254954,453.798442 496.477003,426.359206"/>
    <poly id="341942278" type="building.industrial" color="255,230,230" fill="1" layer="-1.00" shape="696.880353,450.897374 677.650579,479.371310 671.211580,489.043487 669.556545,490.781035 667.428267,491.913022 665.053198,492.313343 662.676039,491.934410 660.538559,490.817590 658.866082,489.081625 657.833158,486.910371 657.543847,484.518750 657.797298,478.939235 658.231167,473.365670 658.845088,467.809174 654.311630,464.776700 657.846177,459.550265 659.932503,460.954807 660.220609,458.537702 661.360104,452.842700 662.651529,447.174970 664.094519,441.545632 668.753691,427.284345 688.983405,440.952758 690.641114,438.502905 700.679067,445.245561 696.880353,450.897374"/>
    <poly id="460183440" type="building.yes" color="255,230,230" fill="1" layer="-1.00" shape="373.417026,620.664522 371.998124,621.563962 370.713991,622.378790 369.422919,623.193389 374.479334,626.587892 376.897285,622.983070 373.417026,620.664522"/>
    <poly id="6318610" type="landuse.industrial" color="209,209,204" fill="1" layer="-3.00" shape="-26.791338,-549.464275 -260.918627,-189.819027 52.113101,9.683318 -51.249717,195.517998 -127.895224,143.001134 -153.968346,181.983835 -156.763354,227.151250 -302.517068,443.289892 -215.151101,507.932678 -176.650553,519.492060 -150.393362,525.229088 -124.792702,523.030473 8.591102,444.048933 88.211105,331.245921 110.475441,309.693039 130.190724,301.235744 153.103214,296.323153 182.368701,299.121941 378.984578,421.154318 465.907821,471.179402 488.116170,477.932907 504.231509,481.124153 521.716534,483.013704 837.039968,13.267018 374.649051,-291.383718 -26.791338,-549.464275"/>
    <poly id="6332954" type="landuse.residential" color="235,235,227" fill="1" layer="-3.00" shape="-879.921544,-869.511391 -999.369059,-828.886917 -1048.674199,-808.222634 -1089.963222,-820.711659 -1121.353240,-710.414437 -1223.234636,-569.033307 -1286.481476,-760.320810 -1320.461029,-783.689646 -1690.853831,-717.824219 -2123.700835,-653.968343 -2125.863812,-587.242096 -2317.478943,-248.393371 -2386.159662,-272.878599 -2430.678332,-185.283751 -2547.938602,-211.338603 -2761.050005,149.102448 -2823.028278,347.455595 -2856.528242,524.455871 -2257.161222,677.422717 -2108.474523,804.671608 -1963.485468,831.638062 -1754.275529,843.632025 -1777.121768,1045.839999 -1753.546250,1189.572229 -1730.871067,1323.135102 -1682.326510,1503.020625 -1684.102492,1513.637459 -1713.680310,1690.648547 -1725.570034,1751.949717 -1532.564286,1751.762650 -1452.698028,1783.248434 -1317.792514,1876.815096 -1180.518034,1963.183214 -934.413780,2129.380540 -919.357532,2139.545482 -1478.235183,2450.822323 -1462.699564,2482.717878 -1445.093606,2496.670964 -1304.776926,2580.186003 -1098.680205,2667.900717 -950.097139,2737.403747 -939.021779,2740.359267 -915.542208,2705.830075 -896.685628,2664.471190 -878.754707,2605.984753 -891.529772,2472.561806 -863.323831,2407.354203 -749.248487,2245.376685 -638.098786,2317.003125 -483.284049,2082.064756 -270.805729,1743.977313 -213.036363,1656.934965 408.789783,719.983996 504.489563,556.156953 870.168359,0.535545 285.049112,-374.954729 -82.800849,-598.532017 -445.191428,-777.366762 -486.472399,-789.849379 -527.389286,-813.461919 -603.375180,-827.079260 -658.538699,-840.014557 -879.921544,-869.511391"/>
    <poly id="648774684" type="amenity.parking" color="184,184,179" fill="1" layer="-1.00" shape="549.665556,574.631725 553.663399,552.601239 559.635706,546.330829 585.795595,549.942439 595.224059,573.907052 594.226783,579.083586 577.290496,600.810021 573.466703,597.956842 567.187399,590.358759 565.150164,587.887274 561.138777,590.304116 549.665556,574.631725"/>
    <poly id="678170819" type="man_made.bridge" color="255,230,230" fill="1" layer="-1.00" shape="656.193863,637.317019 661.513486,642.835430 672.639125,654.077543 677.806790,659.568699 713.512469,622.688755 707.301360,617.452556 697.334397,607.094559 691.281468,601.273644 656.193863,637.317019"/>
    <poly id="721077225" type="building.yes" color="255,230,230" fill="1" layer="-1.00" shape="709.103378,457.734380 707.859916,456.891917 707.026673,458.144523 708.270502,458.975867 709.103378,457.734380"/>
    <poly id="84060593" type="landuse.grass" color="194,194,130" fill="1" layer="-3.00" shape="648.424617,610.446076 520.075326,762.408545 444.549409,852.431875 409.614129,893.657806 408.996815,895.318288 504.772164,796.366534 662.149880,630.278136 661.494037,629.733340 648.424617,610.446076"/>
    <poly id="84063290" type="landuse.grass" color="194,194,130" fill="1" layer="-3.00" shape="443.322205,501.614022 460.307348,513.827783 486.084624,533.488587 490.491984,537.819106 492.192497,540.813763 494.645854,549.844070 495.050855,553.786726 496.715666,548.376151 498.513389,521.008096 443.322205,501.614022"/>
    <poly id="84064661" type="landuse.grass" color="194,194,130" fill="1" layer="-3.00" shape="707.317579,582.634612 806.401376,478.086771 849.077657,432.343510 954.717316,309.525687 843.970901,426.898721 769.563430,499.968406 669.952492,589.784044 684.588361,605.805923 707.317579,582.634612"/>
    <poly id="84065111" type="landuse.forest" color="140,196,107" fill="1" layer="-3.00" shape="495.455488,557.740501 489.598101,547.451541 482.498109,538.401744 473.334991,529.350788 458.528785,517.420236 430.570630,497.531928 380.904605,464.963084 373.699112,461.008066 366.219857,459.882500 362.126478,465.001677 404.228254,492.701829 429.918656,511.212957 458.250481,533.673748 472.833469,545.841835 476.232876,549.771812 478.953250,554.703493 480.408599,558.814321 481.055316,563.432810 480.785449,566.985904 479.509833,570.071751 470.444907,581.661274 452.500714,600.683409 447.367290,605.111522 439.217644,609.162025 432.515946,610.377245 424.045293,610.254134 424.210261,615.791769 423.386435,619.081736 412.049251,636.818864 364.210578,707.885982 367.681357,709.224671 370.576390,708.217989 378.668610,697.887504 383.088914,694.649151 385.314800,694.978452 386.655743,696.024408 385.988148,700.688660 383.285364,704.295230 379.754319,707.740959 369.165065,715.429063 366.713658,717.730436 363.966655,722.047956 358.739439,733.129513 352.873060,740.416561 348.096313,744.567094 338.448396,750.883712 330.296347,757.338631 328.256940,759.364170 324.304405,764.643838 323.820788,766.041582 324.007301,767.550430 328.213187,779.476784 327.507253,784.885568 325.543349,788.416303 324.746115,788.579294 321.617546,787.608093 317.942411,784.670949 315.485952,781.428848 308.292750,769.092522 302.297788,755.804965 297.143166,759.197319 307.051361,775.997528 315.983523,789.737956 316.069573,791.766664 284.542872,817.032170 279.381293,821.904756 276.727204,825.724471 272.576185,829.650770 268.021914,835.066514 263.420033,842.985211 258.332587,855.106653 255.369675,863.669231 251.838787,867.749522 251.561137,869.643819 245.904266,877.750444 243.110839,879.472929 240.790758,880.109000 230.831654,880.694141 233.163402,908.209197 235.067022,910.097332 235.873232,912.405745 238.410462,920.793071 240.320453,926.287920 242.088869,929.540745 243.401961,931.643211 245.843833,933.849600 249.422509,936.338276 252.711276,937.926923 255.026919,937.847272 257.694782,934.662479 300.390566,866.107890 322.440951,831.814872 389.409708,732.848014 487.761037,585.504255 491.411264,578.656372 495.055198,569.047746 495.601924,565.314542 495.455488,557.740501"/>
    <poly id="84065582" type="landuse.forest" color="140,196,107" fill="1" layer="-3.00" shape="1018.573206,156.276410 1021.136636,164.898785 980.814150,213.512486 928.695505,275.194554 885.337605,327.215020 868.240124,337.559138 717.681267,497.154717 708.756326,500.477967 681.924375,503.967551 658.190517,536.322506 674.804185,566.312462 682.430448,569.925605 844.676667,417.093135 890.353273,369.924242 929.328018,328.612034 999.659341,248.274640 1004.481903,242.768170 1071.784775,155.129674 1076.177591,147.917108 1044.385714,130.726044 1018.573206,156.276410"/>
    <poly id="84065767" type="landuse.grass" color="194,194,130" fill="1" layer="-3.00" shape="1013.639440,282.464264 868.336479,454.785425 839.531021,486.059402 767.741502,566.550978 707.787526,629.879911 731.805148,647.246625 930.843999,391.876462 983.038651,324.497775 1013.639440,282.464264"/>
    <poly id="84067389" type="landuse.grass" color="194,194,130" fill="1" layer="-3.00" shape="871.264176,324.869182 851.141558,346.044357 816.504082,381.834475 806.440905,391.642903 802.115084,396.843131 790.367635,408.432656 739.475067,458.558175 736.721225,461.595200 731.751442,465.683376 709.609256,488.940758 680.862639,487.925838 657.345493,518.762970 644.462557,520.987398 646.516640,525.897208 651.322758,541.093960 662.996173,568.594550 670.251005,572.306739 682.430448,569.925605 674.804185,566.312462 658.190517,536.322506 681.924375,503.967551 708.756326,500.477967 717.681267,497.154717 868.240124,337.559138 885.337605,327.215020 928.695505,275.194554 980.814150,213.512486 1021.136636,164.898785 1018.573206,156.276410 1006.736070,171.179637 976.564600,207.561588 950.285467,238.217224 935.457208,254.301895 928.016527,262.938890 924.579903,267.712011 915.315803,277.502110 910.049798,284.029219 881.204273,314.377800 871.264176,324.869182"/>
    <poly id="84067856" type="landuse.grass" color="194,194,130" fill="1" layer="-3.00" shape="692.861215,642.043772 705.906636,653.627564 711.187389,654.636601 714.376131,651.257715 713.586277,645.510208 707.201051,639.867539 700.827576,633.657574 692.861215,642.043772"/>
    <poly id="84068017" type="landuse.grass" color="194,194,130" fill="1" layer="-3.00" shape="580.144375,520.336379 620.701755,549.323255 636.921042,565.786777 646.520537,578.236327 650.240925,586.963437 653.531310,588.296371 655.627784,587.074282 655.087716,583.650319 641.818374,564.311964 625.285792,547.448504 581.952738,518.793089 580.144375,520.336379"/>
    <poi id="1631824319" type="shop.car" color="237,199,255" layer="4.00" x="678.02" y="472.44"/>
    <poi id="5523661758" type="tourism.artwork" color="207,245,201" layer="3.00" x="508.78" y="529.16"/>
    <poi id="6433984380" type="amenity.fountain" color="237,199,199" layer="4.00" x="619.68" y="498.22"/>
    <poi id="8853938564" type="tourism.artwork" color="207,245,201" layer="3.00" x="719.99" y="410.30"/>
</additional>
