<?xml version="1.0" encoding="UTF-8"?>

<!-- generated on 2022-04-19 23:23:41 by Eclipse SUMO duarouter Version 1.12.0
<configuration xmlns:xsi="http://www.w3.org/2001/XMLSchema-instance" xsi:noNamespaceSchemaLocation="http://sumo.dlr.de/xsd/duarouterConfiguration.xsd">

    <input>
        <net-file value="/home/jeroen/Sumo/2022-04-19-23-23-39/osm.net.xml"/>
        <route-files value="/home/jeroen/Sumo/2022-04-19-23-23-39/osm.passenger.trips.xml"/>
    </input>

    <output>
        <output-file value="/home/jeroen/Sumo/2022-04-19-23-23-39/osm.passenger.trips.xml.tmp"/>
        <write-trips value="true"/>
    </output>

    <time>
        <begin value="0"/>
        <end value="3600"/>
    </time>

    <report>
        <no-warnings value="true"/>
        <ignore-errors value="true"/>
        <no-step-log value="true"/>
    </report>

</configuration>
-->

<routes xmlns:xsi="http://www.w3.org/2001/XMLSchema-instance" xsi:noNamespaceSchemaLocation="http://sumo.dlr.de/xsd/routes_file.xsd">
    <vType id="veh_passenger" vClass="passenger"/>
    <trip id="veh0" type="veh_passenger" depart="0.00" departLane="best" from="540275691" to="-7178756#0"/>
    <trip id="veh2" type="veh_passenger" depart="61.11" departLane="best" from="147578236#2" to="-7178756#0"/>
    <trip id="veh3" type="veh_passenger" depart="91.67" departLane="best" departSpeed="max" from="-7172516#3" to="1039328296"/>
    <trip id="veh4" type="veh_passenger" depart="122.22" departLane="best" departSpeed="max" from="7178756#0" to="-7172516#1"/>
    <trip id="veh5" type="veh_passenger" depart="152.78" departLane="best" departSpeed="max" from="7178756#0" to="7178721"/>
    <trip id="veh6" type="veh_passenger" depart="183.33" departLane="best" from="7178756#2" to="662849255"/>
    <trip id="veh7" type="veh_passenger" depart="213.89" departLane="best" departSpeed="max" from="7178756#0" to="7178721"/>
    <trip id="veh8" type="veh_passenger" depart="244.45" departLane="best" departSpeed="max" from="540275690" to="7179084"/>
    <trip id="veh9" type="veh_passenger" depart="275.00" departLane="best" departSpeed="max" from="7178756#0" to="662849255"/>
    <trip id="veh10" type="veh_passenger" depart="305.56" departLane="best" departSpeed="max" from="540276427#0" to="-7178756#0"/>
    <trip id="veh11" type="veh_passenger" depart="336.11" departLane="best" from="540275691" to="147433218"/>
    <trip id="veh12" type="veh_passenger" depart="366.67" departLane="best" departSpeed="max" from="147433216" to="7179084"/>
    <trip id="veh13" type="veh_passenger" depart="397.22" departLane="best" from="1039324387#0" to="7178721"/>
    <trip id="veh15" type="veh_passenger" depart="458.34" departLane="best" departSpeed="max" from="540275690" to="7172516#3"/>
    <trip id="veh16" type="veh_passenger" depart="488.89" departLane="best" from="7178756#1" to="7178844#1"/>
    <trip id="veh17" type="veh_passenger" depart="519.45" departLane="best" from="147398066" to="-7178756#0"/>
    <trip id="veh18" type="veh_passenger" depart="550.00" departLane="best" from="1039328296" to="7179084"/>
    <trip id="veh19" type="veh_passenger" depart="580.56" departLane="best" from="7178844#2" to="147433218"/>
    <trip id="veh20" type="veh_passenger" depart="611.11" departLane="best" departSpeed="max" from="540276427#0" to="147433218"/>
    <trip id="veh21" type="veh_passenger" depart="641.67" departLane="best" departSpeed="max" from="540275690" to="147398062"/>
    <trip id="veh23" type="veh_passenger" depart="702.78" departLane="best" departSpeed="max" from="-7178721" to="-7178756#0"/>
    <trip id="veh24" type="veh_passenger" depart="733.34" departLane="best" departSpeed="max" from="-7178721" to="147433218"/>
    <trip id="veh25" type="veh_passenger" depart="763.89" departLane="best" departSpeed="max" from="147433216" to="7172516#3"/>
    <trip id="veh26" type="veh_passenger" depart="794.45" departLane="best" from="540275688" to="7179084"/>
    <trip id="veh27" type="veh_passenger" depart="825.00" departLane="best" departSpeed="max" from="7178938" to="7179001#1"/>
    <trip id="veh28" type="veh_passenger" depart="855.56" departLane="best" from="-7172516#1" to="147433218"/>
    <trip id="veh29" type="veh_passenger" depart="886.12" departLane="best" departSpeed="max" from="-7172516#3" to="7179084"/>
    <trip id="veh30" type="veh_passenger" depart="916.67" departLane="best" departSpeed="max" from="147433216" to="-7178756#0"/>
    <trip id="veh31" type="veh_passenger" depart="947.23" departLane="best" departSpeed="max" from="7178938" to="7179084"/>
    <trip id="veh32" type="veh_passenger" depart="977.78" departLane="best" departSpeed="max" from="540275690" to="7178721"/>
    <trip id="veh34" type="veh_passenger" depart="1038.89" departLane="best" from="7178844#0" to="-7178756#0"/>
    <trip id="veh35" type="veh_passenger" depart="1069.45" departLane="best" departSpeed="max" from="147433216" to="7172516#3"/>
    <trip id="veh36" type="veh_passenger" depart="1100.01" departLane="best" departSpeed="max" from="540275690" to="7178844#2"/>
    <trip id="veh37" type="veh_passenger" depart="1130.56" departLane="best" departSpeed="max" from="7178756#0" to="1039324388#0"/>
    <trip id="veh38" type="veh_passenger" depart="1161.12" departLane="best" departSpeed="max" from="540276427#0" to="7172516#3"/>
    <trip id="veh40" type="veh_passenger" depart="1222.23" departLane="best" from="147578236#2" to="-7178756#0"/>
    <trip id="veh41" type="veh_passenger" depart="1252.78" departLane="best" departSpeed="max" from="540275690" to="7178721"/>
    <trip id="veh42" type="veh_passenger" depart="1283.34" departLane="best" departSpeed="max" from="540275690" to="7178756#1"/>
    <trip id="veh43" type="veh_passenger" depart="1313.90" departLane="best" departSpeed="max" from="-7172516#3" to="548706396#1"/>
    <trip id="veh44" type="veh_passenger" depart="1344.45" departLane="best" departSpeed="max" from="540275690" to="7179001#0"/>
    <trip id="veh45" type="veh_passenger" depart="1375.01" departLane="best" from="1038597850#0" to="7179084"/>
    <trip id="veh46" type="veh_passenger" depart="1405.56" departLane="best" departSpeed="max" from="540275690" to="7172516#3"/>
    <trip id="veh47" type="veh_passenger" depart="1436.12" departLane="best" departSpeed="max" from="7178938" to="147398062"/>
    <trip id="veh48" type="veh_passenger" depart="1466.67" departLane="best" departSpeed="max" from="540275690" to="7172516#1"/>
    <trip id="veh49" type="veh_passenger" depart="1497.23" departLane="best" departSpeed="max" from="540275690" to="7179084"/>
    <trip id="veh50" type="veh_passenger" depart="1527.79" departLane="best" departSpeed="max" from="147433216" to="147433218"/>
    <trip id="veh51" type="veh_passenger" depart="1558.34" departLane="best" departSpeed="max" from="540276427#0" to="147433218"/>
    <trip id="veh52" type="veh_passenger" depart="1588.90" departLane="best" departSpeed="max" from="-7178721" to="1039328296"/>
    <trip id="veh53" type="veh_passenger" depart="1619.45" departLane="best" departSpeed="max" from="147433216" to="7179084"/>
    <trip id="veh54" type="veh_passenger" depart="1650.01" departLane="best" departSpeed="max" from="7178938" to="7179001#1"/>
    <trip id="veh55" type="veh_passenger" depart="1680.56" departLane="best" departSpeed="max" from="7178756#0" to="7178721"/>
    <trip id="veh56" type="veh_passenger" depart="1711.12" departLane="best" departSpeed="max" from="540276427#0" to="-7172516#1"/>
    <trip id="veh57" type="veh_passenger" depart="1741.68" departLane="best" departSpeed="max" from="540276427#0" to="7179084"/>
    <trip id="veh58" type="veh_passenger" depart="1772.23" departLane="best" departSpeed="max" from="-7178721" to="7179001#1"/>
    <trip id="veh59" type="veh_passenger" depart="1802.79" departLane="best" departSpeed="max" from="7178756#0" to="548706396#1"/>
    <trip id="veh60" type="veh_passenger" depart="1833.34" departLane="best" departSpeed="max" from="7178756#0" to="7179001#0"/>
    <trip id="veh61" type="veh_passenger" depart="1863.90" departLane="best" departSpeed="max" from="7178938" to="1039328296"/>
    <trip id="veh62" type="veh_passenger" depart="1894.45" departLane="best" from="7172516#1" to="7179001#1"/>
    <trip id="veh63" type="veh_passenger" depart="1925.01" departLane="best" from="1038597849#0" to="7179084"/>
    <trip id="veh64" type="veh_passenger" depart="1955.57" departLane="best" from="7178844#1" to="7179084"/>
    <trip id="veh65" type="veh_passenger" depart="1986.12" departLane="best" departSpeed="max" from="7178756#0" to="7179001#1"/>
    <trip id="veh66" type="veh_passenger" depart="2016.68" departLane="best" departSpeed="max" from="147433216" to="7179084"/>
    <trip id="veh67" type="veh_passenger" depart="2047.23" departLane="best" departSpeed="max" from="7178756#0" to="7179001#0"/>
    <trip id="veh68" type="veh_passenger" depart="2077.79" departLane="best" departSpeed="max" from="7178756#0" to="147398062"/>
    <trip id="veh69" type="veh_passenger" depart="2108.34" departLane="best" from="147398066" to="7178940"/>
    <trip id="veh70" type="veh_passenger" depart="2138.90" departLane="best" departSpeed="max" from="7178756#0" to="147398062"/>
    <trip id="veh71" type="veh_passenger" depart="2169.46" departLane="best" departSpeed="max" from="-7172516#3" to="1039324388#0"/>
    <trip id="veh72" type="veh_passenger" depart="2200.01" departLane="best" from="540275691" to="147433218"/>
    <trip id="veh73" type="veh_passenger" depart="2230.57" departLane="best" departSpeed="max" from="540276427#0" to="147433218"/>
    <trip id="veh74" type="veh_passenger" depart="2261.12" departLane="best" departSpeed="max" from="540275690" to="339552603#3"/>
    <trip id="veh75" type="veh_passenger" depart="2291.68" departLane="best" departSpeed="max" from="540275690" to="7178721"/>
    <trip id="veh77" type="veh_passenger" depart="2352.79" departLane="best" from="147578236#0" to="-7178756#0"/>
    <trip id="veh78" type="veh_passenger" depart="2383.35" departLane="best" departSpeed="max" from="540276427#0" to="147433218"/>
    <trip id="veh79" type="veh_passenger" depart="2413.90" departLane="best" departSpeed="max" from="540276427#0" to="147433218"/>
    <trip id="veh80" type="veh_passenger" depart="2444.46" departLane="best" from="7179001#1" to="7172516#3"/>
    <trip id="veh81" type="veh_passenger" depart="2475.01" departLane="best" departSpeed="max" from="7178938" to="662849255"/>
    <trip id="veh83" type="veh_passenger" depart="2536.12" departLane="best" from="540275691" to="147433218"/>
    <trip id="veh84" type="veh_passenger" depart="2566.68" departLane="best" departSpeed="max" from="7178756#0" to="7178756#1"/>
    <trip id="veh85" type="veh_passenger" depart="2597.24" departLane="best" from="1039328296" to="-7178756#0"/>
    <trip id="veh86" type="veh_passenger" depart="2627.79" departLane="best" departSpeed="max" from="540275690" to="147398062"/>
    <trip id="veh87" type="veh_passenger" depart="2658.35" departLane="best" departSpeed="max" from="540276427#0" to="-7172516#1"/>
    <trip id="veh88" type="veh_passenger" depart="2688.90" departLane="best" from="1039324387#0" to="7179084"/>
    <trip id="veh89" type="veh_passenger" depart="2719.46" departLane="best" from="540275688" to="7178940"/>
    <trip id="veh90" type="veh_passenger" depart="2750.01" departLane="best" departSpeed="max" from="540276427#0" to="7179084-AddedOnRampEdge"/>
    <trip id="veh91" type="veh_passenger" depart="2780.57" departLane="best" departSpeed="max" from="540275690" to="7179084"/>
    <trip id="veh92" type="veh_passenger" depart="2811.13" departLane="best" departSpeed="max" from="7178938" to="662849255"/>
    <trip id="veh93" type="veh_passenger" depart="2841.68" departLane="best" departSpeed="max" from="7178756#0" to="540275691"/>
    <trip id="veh94" type="veh_passenger" depart="2872.24" departLane="best" departSpeed="max" from="540275690" to="147398062"/>
    <trip id="veh95" type="veh_passenger" depart="2902.79" departLane="best" departSpeed="max" from="-7178721" to="147398066"/>
    <trip id="veh96" type="veh_passenger" depart="2933.35" departLane="best" departSpeed="max" from="147433216" to="147433218"/>
    <trip id="veh97" type="veh_passenger" depart="2963.90" departLane="best" from="147398066" to="7178721"/>
    <trip id="veh98" type="veh_passenger" depart="2994.46" departLane="best" departSpeed="max" from="540276427#0" to="-7178756#0"/>
    <trip id="veh99" type="veh_passenger" depart="3025.02" departLane="best" departSpeed="max" from="540275690" to="7178721"/>
    <trip id="veh100" type="veh_passenger" depart="3055.57" departLane="best" from="7178844#0" to="7179084"/>
    <trip id="veh101" type="veh_passenger" depart="3086.13" departLane="best" from="339552603#2" to="-7178756#0"/>
    <trip id="veh102" type="veh_passenger" depart="3116.68" departLane="best" departSpeed="max" from="147433216" to="7172516#3"/>
    <trip id="veh103" type="veh_passenger" depart="3147.24" departLane="best" departSpeed="max" from="-7172516#3" to="147433218"/>
    <trip id="veh105" type="veh_passenger" depart="3208.35" departLane="best" departSpeed="max" from="147433216" to="-7178756#1"/>
    <trip id="veh106" type="veh_passenger" depart="3238.91" departLane="best" departSpeed="max" from="-7172516#3" to="540275691"/>
    <trip id="veh107" type="veh_passenger" depart="3269.46" departLane="best" departSpeed="max" from="540276427#0" to="7178756#2"/>
    <trip id="veh108" type="veh_passenger" depart="3300.02" departLane="best" departSpeed="max" from="-7172516#3" to="1038597850#0"/>
    <trip id="veh109" type="veh_passenger" depart="3330.57" departLane="best" from="-7178844#1" to="7172516#3"/>
    <trip id="veh110" type="veh_passenger" depart="3361.13" departLane="best" departSpeed="max" from="540275690" to="147398062"/>
    <trip id="veh111" type="veh_passenger" depart="3391.68" departLane="best" departSpeed="max" from="7178756#0" to="7179084"/>
    <trip id="veh112" type="veh_passenger" depart="3422.24" departLane="best" from="-7178756#2" to="-7178756#0"/>
    <trip id="veh113" type="veh_passenger" depart="3452.80" departLane="best" departSpeed="max" from="147433216" to="7172516#3"/>
    <trip id="veh114" type="veh_passenger" depart="3483.35" departLane="best" departSpeed="max" from="540276427#0" to="-7178756#1"/>
    <trip id="veh115" type="veh_passenger" depart="3513.91" departLane="best" from="7178756#2" to="662849255"/>
    <trip id="veh116" type="veh_passenger" depart="3544.46" departLane="best" from="-7178844#0" to="7179084-AddedOnRampEdge"/>
    <trip id="veh117" type="veh_passenger" depart="3575.02" departLane="best" from="7172516#1" to="147433218"/>
</routes>
