<?xml version="1.0" encoding="UTF-8"?>

<!-- generated on 2022-04-29 09:52:30 by Eclipse SUMO netedit Version 1.12.0
<configuration xmlns:xsi="http://www.w3.org/2001/XMLSchema-instance" xsi:noNamespaceSchemaLocation="http://sumo.dlr.de/xsd/netconvertConfiguration.xsd">

    <input>
        <sumo-net-file value="simple.net.xml"/>
    </input>

    <output>
        <output-file value="simple.net.xml"/>
    </output>

    <processing>
        <geometry.min-radius.fix.railways value="false"/>
        <geometry.max-grade.fix value="false"/>
        <offset.disable-normalization value="true"/>
        <lefthand value="false"/>
    </processing>

    <junctions>
        <no-turnarounds value="true"/>
        <junctions.corner-detail value="5"/>
        <junctions.limit-turn-speed value="5.5"/>
        <rectangular-lane-cut value="false"/>
    </junctions>

    <pedestrian>
        <walkingareas value="false"/>
    </pedestrian>

    <report>
        <aggregate-warnings value="5"/>
    </report>

</configuration>
-->

<net version="1.9" junctionCornerDetail="5" limitTurnSpeed="5.50" xmlns:xsi="http://www.w3.org/2001/XMLSchema-instance" xsi:noNamespaceSchemaLocation="http://sumo.dlr.de/xsd/net_file.xsd">

    <location netOffset="0.00,0.00" convBoundary="-100.00,-100.00,100.00,100.00" origBoundary="-10000000000.00,-10000000000.00,10000000000.00,10000000000.00" projParameter="!"/>

    <edge id=":M_0" function="internal">
        <lane id=":M_0_0" index="0" speed="6.51" length="9.03" shape="-1.60,7.20 -1.95,4.75 -3.00,3.00 -4.75,1.95 -7.20,1.60"/>
    </edge>
    <edge id=":M_1" function="internal">
        <lane id=":M_1_0" index="0" speed="13.89" length="14.40" shape="-1.60,7.20 -1.60,-7.20"/>
    </edge>
    <edge id=":M_2" function="internal">
        <lane id=":M_2_0" index="0" speed="8.00" length="4.07" shape="-1.60,7.20 -1.05,3.35 -0.96,3.20"/>
    </edge>
    <edge id=":M_12" function="internal">
        <lane id=":M_12_0" index="0" speed="8.00" length="10.13" shape="-0.96,3.20 0.60,0.60 3.35,-1.05 7.20,-1.60"/>
    </edge>
    <edge id=":M_3" function="internal">
        <lane id=":M_3_0" index="0" speed="6.51" length="9.03" shape="7.20,1.60 4.75,1.95 3.00,3.00 1.95,4.75 1.60,7.20"/>
    </edge>
    <edge id=":M_4" function="internal">
        <lane id=":M_4_0" index="0" speed="13.89" length="14.40" shape="7.20,1.60 -7.20,1.60"/>
    </edge>
    <edge id=":M_5" function="internal">
        <lane id=":M_5_0" index="0" speed="8.00" length="4.07" shape="7.20,1.60 3.35,1.05 3.20,0.96"/>
    </edge>
    <edge id=":M_13" function="internal">
        <lane id=":M_13_0" index="0" speed="8.00" length="10.13" shape="3.20,0.96 0.60,-0.60 -1.05,-3.35 -1.60,-7.20"/>
    </edge>
    <edge id=":M_6" function="internal">
        <lane id=":M_6_0" index="0" speed="6.51" length="9.03" shape="1.60,-7.20 1.95,-4.75 3.00,-3.00 4.75,-1.95 7.20,-1.60"/>
    </edge>
    <edge id=":M_7" function="internal">
        <lane id=":M_7_0" index="0" speed="13.89" length="14.40" shape="1.60,-7.20 1.60,7.20"/>
    </edge>
    <edge id=":M_8" function="internal">
        <lane id=":M_8_0" index="0" speed="8.00" length="4.07" shape="1.60,-7.20 1.05,-3.35 0.96,-3.20"/>
    </edge>
    <edge id=":M_14" function="internal">
        <lane id=":M_14_0" index="0" speed="8.00" length="10.13" shape="0.96,-3.20 -0.60,-0.60 -3.35,1.05 -7.20,1.60"/>
    </edge>
    <edge id=":M_9" function="internal">
        <lane id=":M_9_0" index="0" speed="6.51" length="9.03" shape="-7.20,-1.60 -4.75,-1.95 -3.00,-3.00 -1.95,-4.75 -1.60,-7.20"/>
    </edge>
    <edge id=":M_10" function="internal">
        <lane id=":M_10_0" index="0" speed="13.89" length="14.40" shape="-7.20,-1.60 7.20,-1.60"/>
    </edge>
    <edge id=":M_11" function="internal">
        <lane id=":M_11_0" index="0" speed="8.00" length="4.07" shape="-7.20,-1.60 -3.35,-1.05 -3.20,-0.96"/>
    </edge>
    <edge id=":M_15" function="internal">
        <lane id=":M_15_0" index="0" speed="8.00" length="10.13" shape="-3.20,-0.96 -0.60,0.60 1.05,3.35 1.60,7.20"/>
    </edge>

    <edge id="BM" from="B" to="M" priority="-1">
        <lane id="BM_0" index="0" speed="13.89" length="92.80" shape="1.60,-100.00 1.60,-7.20"/>
    </edge>
    <edge id="LM" from="L" to="M" priority="-1">
        <lane id="LM_0" index="0" speed="13.89" length="92.80" shape="-100.00,-1.60 -7.20,-1.60"/>
    </edge>
    <edge id="MB" from="M" to="B" priority="-1">
        <lane id="MB_0" index="0" speed="13.89" length="92.80" shape="-1.60,-7.20 -1.60,-100.00"/>
    </edge>
    <edge id="ML" from="M" to="L" priority="-1">
        <lane id="ML_0" index="0" speed="13.89" length="92.80" shape="-7.20,1.60 -100.00,1.60"/>
    </edge>
    <edge id="MR" from="M" to="R" priority="-1">
        <lane id="MR_0" index="0" speed="13.89" length="92.80" shape="7.20,-1.60 100.00,-1.60"/>
    </edge>
    <edge id="MT" from="M" to="T" priority="-1">
        <lane id="MT_0" index="0" speed="13.89" length="92.80" shape="1.60,7.20 1.60,100.00"/>
    </edge>
    <edge id="RM" from="R" to="M" priority="-1">
        <lane id="RM_0" index="0" speed="13.89" length="92.80" shape="100.00,1.60 7.20,1.60"/>
    </edge>
    <edge id="TM" from="T" to="M" priority="-1">
        <lane id="TM_0" index="0" speed="13.89" length="92.80" shape="-1.60,100.00 -1.60,7.20"/>
    </edge>

    <tlLogic id="M" type="static" programID="0" offset="0">
        <phase duration="42" state="GGgrrrGGgrrr"/>
        <phase duration="3"  state="yyyrrryyyrrr"/>
        <phase duration="42" state="rrrGGgrrrGGg"/>
        <phase duration="3"  state="rrryyyrrryyy"/>
    </tlLogic>

    <junction id="B" type="dead_end" x="0.00" y="-100.00" incLanes="MB_0" intLanes="" shape="0.00,-100.00 -3.20,-100.00 0.00,-100.00"/>
    <junction id="L" type="dead_end" x="-100.00" y="0.00" incLanes="ML_0" intLanes="" shape="-100.00,0.00 -100.00,3.20 -100.00,0.00"/>
    <junction id="M" type="traffic_light" x="0.00" y="0.00" incLanes="TM_0 RM_0 BM_0 LM_0" intLanes=":M_0_0 :M_1_0 :M_12_0 :M_3_0 :M_4_0 :M_13_0 :M_6_0 :M_7_0 :M_14_0 :M_9_0 :M_10_0 :M_15_0" shape="-3.20,7.20 3.20,7.20 3.64,4.98 4.20,4.20 4.98,3.64 5.98,3.31 7.20,3.20 7.20,-3.20 4.98,-3.64 4.20,-4.20 3.64,-4.98 3.31,-5.98 3.20,-7.20 -3.20,-7.20 -3.64,-4.98 -4.20,-4.20 -4.98,-3.64 -5.98,-3.31 -7.20,-3.20 -7.20,3.20 -4.98,3.64 -4.20,4.20 -3.64,4.98 -3.31,5.98">
        <request index="0"  response="000000000000" foes="000100010000" cont="0"/>
        <request index="1"  response="100000100000" foes="111100110000" cont="0"/>
        <request index="2"  response="100011100000" foes="110111110000" cont="1"/>
        <request index="3"  response="000010000000" foes="100010000000" cont="0"/>
        <request index="4"  response="000110000111" foes="100110000111" cont="0"/>
        <request index="5"  response="011110000110" foes="111110000110" cont="1"/>
        <request index="6"  response="000000000000" foes="010000000100" cont="0"/>
        <request index="7"  response="100000100000" foes="110000111100" cont="0"/>
        <request index="8"  response="100000100111" foes="110000110111" cont="1"/>
        <request index="9"  response="000000000010" foes="000000100010" cont="0"/>
        <request index="10" response="000111000110" foes="000111100110" cont="0"/>
        <request index="11" response="000110111110" foes="000110111110" cont="1"/>
    </junction>
    <junction id="R" type="dead_end" x="100.00" y="0.00" incLanes="MR_0" intLanes="" shape="100.00,0.00 100.00,-3.20 100.00,0.00"/>
    <junction id="T" type="dead_end" x="0.00" y="100.00" incLanes="MT_0" intLanes="" shape="0.00,100.00 3.20,100.00 0.00,100.00"/>

    <junction id=":M_12_0" type="internal" x="-0.96" y="3.20" incLanes=":M_2_0 BM_0" intLanes=":M_4_0 :M_5_0 :M_6_0 :M_7_0 :M_10_0 :M_11_0"/>
    <junction id=":M_13_0" type="internal" x="3.20" y="0.96" incLanes=":M_5_0 LM_0" intLanes=":M_1_0 :M_2_0 :M_7_0 :M_8_0 :M_9_0 :M_10_0"/>
    <junction id=":M_14_0" type="internal" x="0.96" y="-3.20" incLanes=":M_8_0 TM_0" intLanes=":M_0_0 :M_1_0 :M_4_0 :M_5_0 :M_10_0 :M_11_0"/>
    <junction id=":M_15_0" type="internal" x="-3.20" y="-0.96" incLanes=":M_11_0 RM_0" intLanes=":M_1_0 :M_2_0 :M_3_0 :M_4_0 :M_7_0 :M_8_0"/>

    <connection from="BM" to="MR" fromLane="0" toLane="0" via=":M_6_0" tl="M" linkIndex="6" dir="r" state="O"/>
    <connection from="BM" to="MT" fromLane="0" toLane="0" via=":M_7_0" tl="M" linkIndex="7" dir="s" state="O"/>
    <connection from="BM" to="ML" fromLane="0" toLane="0" via=":M_8_0" tl="M" linkIndex="8" dir="l" state="o"/>
    <connection from="LM" to="MB" fromLane="0" toLane="0" via=":M_9_0" tl="M" linkIndex="9" dir="r" state="o"/>
    <connection from="LM" to="MR" fromLane="0" toLane="0" via=":M_10_0" tl="M" linkIndex="10" dir="s" state="o"/>
    <connection from="LM" to="MT" fromLane="0" toLane="0" via=":M_11_0" tl="M" linkIndex="11" dir="l" state="o"/>
    <connection from="RM" to="MT" fromLane="0" toLane="0" via=":M_3_0" tl="M" linkIndex="3" dir="r" state="o"/>
    <connection from="RM" to="ML" fromLane="0" toLane="0" via=":M_4_0" tl="M" linkIndex="4" dir="s" state="o"/>
    <connection from="RM" to="MB" fromLane="0" toLane="0" via=":M_5_0" tl="M" linkIndex="5" dir="l" state="o"/>
    <connection from="TM" to="ML" fromLane="0" toLane="0" via=":M_0_0" tl="M" linkIndex="0" dir="r" state="O"/>
    <connection from="TM" to="MB" fromLane="0" toLane="0" via=":M_1_0" tl="M" linkIndex="1" dir="s" state="O"/>
    <connection from="TM" to="MR" fromLane="0" toLane="0" via=":M_2_0" tl="M" linkIndex="2" dir="l" state="o"/>

    <connection from=":M_0" to="ML" fromLane="0" toLane="0" dir="r" state="M"/>
    <connection from=":M_1" to="MB" fromLane="0" toLane="0" dir="s" state="M"/>
    <connection from=":M_2" to="MR" fromLane="0" toLane="0" via=":M_12_0" dir="l" state="m"/>
    <connection from=":M_12" to="MR" fromLane="0" toLane="0" dir="l" state="M"/>
    <connection from=":M_3" to="MT" fromLane="0" toLane="0" dir="r" state="M"/>
    <connection from=":M_4" to="ML" fromLane="0" toLane="0" dir="s" state="M"/>
    <connection from=":M_5" to="MB" fromLane="0" toLane="0" via=":M_13_0" dir="l" state="m"/>
    <connection from=":M_13" to="MB" fromLane="0" toLane="0" dir="l" state="M"/>
    <connection from=":M_6" to="MR" fromLane="0" toLane="0" dir="r" state="M"/>
    <connection from=":M_7" to="MT" fromLane="0" toLane="0" dir="s" state="M"/>
    <connection from=":M_8" to="ML" fromLane="0" toLane="0" via=":M_14_0" dir="l" state="m"/>
    <connection from=":M_14" to="ML" fromLane="0" toLane="0" dir="l" state="M"/>
    <connection from=":M_9" to="MB" fromLane="0" toLane="0" dir="r" state="M"/>
    <connection from=":M_10" to="MR" fromLane="0" toLane="0" dir="s" state="M"/>
    <connection from=":M_11" to="MT" fromLane="0" toLane="0" via=":M_15_0" dir="l" state="m"/>
    <connection from=":M_15" to="MT" fromLane="0" toLane="0" dir="l" state="M"/>

</net>
