<?xml version="1.0" encoding="UTF-8"?>

<!-- generated on 2022-06-02 15:29:41 by Eclipse SUMO netedit Version 1.13.0
<configuration xmlns:xsi="http://www.w3.org/2001/XMLSchema-instance" xsi:noNamespaceSchemaLocation="http://sumo.dlr.de/xsd/netconvertConfiguration.xsd">

    <input>
        <sumo-net-file value="testintersection1.net.xml"/>
    </input>

    <output>
        <output-file value="testintersection1.net.xml"/>
    </output>

    <processing>
        <geometry.min-radius.fix.railways value="false"/>
        <geometry.max-grade.fix value="false"/>
        <offset.disable-normalization value="true"/>
        <lefthand value="false"/>
    </processing>

    <junctions>
        <no-turnarounds value="true"/>
        <junctions.corner-detail value="5"/>
        <junctions.limit-turn-speed value="5.5"/>
        <rectangular-lane-cut value="false"/>
    </junctions>

    <pedestrian>
        <walkingareas value="false"/>
    </pedestrian>

    <report>
        <aggregate-warnings value="5"/>
    </report>

</configuration>
-->

<net version="1.9" junctionCornerDetail="5" limitTurnSpeed="5.50" xmlns:xsi="http://www.w3.org/2001/XMLSchema-instance" xsi:noNamespaceSchemaLocation="http://sumo.dlr.de/xsd/net_file.xsd">

    <location netOffset="0.00,0.00" convBoundary="-100.00,-100.00,100.00,100.10" origBoundary="-10000000000.00,-10000000000.00,10000000000.00,10000000000.00" projParameter="!"/>

    <edge id=":J0_0" function="internal">
        <lane id=":J0_0_0" index="0" speed="6.51" length="9.04" shape="-1.59,7.20 -1.95,4.75 -3.00,3.00 -4.75,1.95 -7.20,1.60"/>
    </edge>
    <edge id=":J0_1" function="internal">
        <lane id=":J0_1_0" index="0" speed="8.00" length="14.20" shape="-1.59,7.20 -1.05,3.35 0.60,0.60 3.35,-1.05 7.20,-1.60"/>
    </edge>
    <edge id=":J0_2" function="internal">
        <lane id=":J0_2_0" index="0" speed="6.51" length="9.03" shape="7.20,1.60 4.75,1.95 3.00,3.00 1.95,4.75 1.61,7.20"/>
    </edge>
    <edge id=":J0_3" function="internal">
        <lane id=":J0_3_0" index="0" speed="13.89" length="14.40" shape="7.20,1.60 -7.20,1.60"/>
    </edge>
    <edge id=":J0_4" function="internal">
        <lane id=":J0_4_0" index="0" speed="6.51" length="9.03" shape="1.60,-7.20 1.95,-4.75 3.00,-3.00 4.75,-1.95 7.20,-1.60"/>
    </edge>
    <edge id=":J0_5" function="internal">
        <lane id=":J0_5_0" index="0" speed="13.89" length="14.40" shape="1.60,-7.20 1.61,7.20"/>
    </edge>
    <edge id=":J0_6" function="internal">
        <lane id=":J0_6_0" index="0" speed="8.00" length="14.19" shape="1.60,-7.20 1.05,-3.35 -0.60,-0.60 -3.35,1.05 -7.20,1.60"/>
    </edge>
    <edge id=":J0_7" function="internal">
        <lane id=":J0_7_0" index="0" speed="13.89" length="14.40" shape="-7.20,-1.60 7.20,-1.60"/>
    </edge>
    <edge id=":J0_8" function="internal">
        <lane id=":J0_8_0" index="0" speed="8.01" length="4.07" shape="-7.20,-1.60 -3.35,-1.05 -3.20,-0.96"/>
    </edge>
    <edge id=":J0_9" function="internal">
        <lane id=":J0_9_0" index="0" speed="8.01" length="10.13" shape="-3.20,-0.96 -0.60,0.60 1.05,3.35 1.61,7.20"/>
    </edge>

    <edge id="-E0" from="J1" to="J0" priority="-1">
        <lane id="-E0_0" index="0" speed="13.89" length="92.80" shape="100.00,1.60 7.20,1.60"/>
    </edge>
    <edge id="-E1" from="J2" to="J0" priority="-1" shape="0.10,100.10 0.00,0.00">
        <lane id="-E1_0" index="0" speed="13.89" length="92.80" shape="-1.50,100.00 -1.59,7.20"/>
    </edge>
    <edge id="-E2" from="J3" to="J0" priority="-1">
        <lane id="-E2_0" index="0" speed="13.89" length="92.80" shape="-100.00,-1.60 -7.20,-1.60"/>
    </edge>
    <edge id="-E3" from="J4" to="J0" priority="-1">
        <lane id="-E3_0" index="0" speed="13.89" length="92.80" shape="1.60,-100.00 1.60,-7.20"/>
    </edge>
    <edge id="E0" from="J0" to="J1" priority="-1">
        <lane id="E0_0" index="0" speed="13.89" length="92.80" shape="7.20,-1.60 100.00,-1.60"/>
    </edge>
    <edge id="E1" from="J0" to="J2" priority="-1" shape="0.00,0.00 0.10,100.10">
        <lane id="E1_0" index="0" speed="13.89" length="92.80" shape="1.61,7.20 1.70,100.00"/>
    </edge>
    <edge id="E2" from="J0" to="J3" priority="-1">
        <lane id="E2_0" index="0" speed="13.89" length="92.80" shape="-7.20,1.60 -100.00,1.60"/>
    </edge>
    <edge id="E3" from="J0" to="J4" priority="-1">
        <lane id="E3_0" index="0" speed="13.89" length="92.80" shape="-1.60,-7.20 -1.60,-100.00"/>
    </edge>

    <junction id="J0" type="priority" x="0.00" y="0.00" incLanes="-E1_0 -E0_0 -E3_0 -E2_0" intLanes=":J0_0_0 :J0_1_0 :J0_2_0 :J0_3_0 :J0_4_0 :J0_5_0 :J0_6_0 :J0_7_0 :J0_9_0" shape="-3.19,7.21 3.21,7.20 3.65,4.98 4.20,4.20 4.98,3.64 5.98,3.31 7.20,3.20 7.20,-3.20 4.98,-3.64 4.20,-4.20 3.64,-4.98 3.31,-5.98 3.20,-7.20 -3.20,-7.20 -3.64,-4.98 -4.20,-4.20 -4.98,-3.64 -5.98,-3.31 -7.20,-3.20 -7.20,3.20 -4.98,3.65 -4.20,4.20 -3.64,4.98 -3.31,5.98">
        <request index="0" response="000001000" foes="001001000" cont="0"/>
        <request index="1" response="111111000" foes="111111000" cont="0"/>
        <request index="2" response="000000000" foes="100100000" cont="0"/>
        <request index="3" response="000000000" foes="101100011" cont="0"/>
        <request index="4" response="010000000" foes="010000010" cont="0"/>
        <request index="5" response="110001100" foes="110001110" cont="0"/>
        <request index="6" response="110001001" foes="110001011" cont="0"/>
        <request index="7" response="000000000" foes="001110010" cont="0"/>
        <request index="8" response="000001100" foes="001101110" cont="1"/>
    </junction>
    <junction id="J1" type="dead_end" x="100.00" y="0.00" incLanes="E0_0" intLanes="" shape="100.00,0.00 100.00,-3.20 100.00,0.00"/>
    <junction id="J2" type="dead_end" x="0.00" y="100.00" incLanes="E1_0" intLanes="" shape="0.10,100.00 3.30,100.00 0.10,100.00"/>
    <junction id="J3" type="dead_end" x="-100.00" y="0.00" incLanes="E2_0" intLanes="" shape="-100.00,0.00 -100.00,3.20 -100.00,0.00"/>
    <junction id="J4" type="dead_end" x="0.00" y="-100.00" incLanes="E3_0" intLanes="" shape="0.00,-100.00 -3.20,-100.00 0.00,-100.00"/>

    <junction id=":J0_9_0" type="internal" x="-3.20" y="-0.96" incLanes=":J0_8_0 -E0_0" intLanes=":J0_1_0 :J0_2_0 :J0_3_0 :J0_5_0 :J0_6_0"/>

    <connection from="-E0" to="E1" fromLane="0" toLane="0" via=":J0_2_0" dir="r" state="M"/>
    <connection from="-E0" to="E2" fromLane="0" toLane="0" via=":J0_3_0" dir="s" state="M"/>
    <connection from="-E1" to="E2" fromLane="0" toLane="0" via=":J0_0_0" dir="r" state="m"/>
    <connection from="-E1" to="E0" fromLane="0" toLane="0" via=":J0_1_0" dir="l" state="m"/>
    <connection from="-E2" to="E0" fromLane="0" toLane="0" via=":J0_7_0" dir="s" state="M"/>
    <connection from="-E2" to="E1" fromLane="0" toLane="0" via=":J0_8_0" dir="l" state="m"/>
    <connection from="-E3" to="E0" fromLane="0" toLane="0" via=":J0_4_0" dir="r" state="m"/>
    <connection from="-E3" to="E1" fromLane="0" toLane="0" via=":J0_5_0" dir="s" state="m"/>
    <connection from="-E3" to="E2" fromLane="0" toLane="0" via=":J0_6_0" dir="l" state="m"/>

    <connection from=":J0_0" to="E2" fromLane="0" toLane="0" dir="r" state="M"/>
    <connection from=":J0_1" to="E0" fromLane="0" toLane="0" dir="l" state="M"/>
    <connection from=":J0_2" to="E1" fromLane="0" toLane="0" dir="r" state="M"/>
    <connection from=":J0_3" to="E2" fromLane="0" toLane="0" dir="s" state="M"/>
    <connection from=":J0_4" to="E0" fromLane="0" toLane="0" dir="r" state="M"/>
    <connection from=":J0_5" to="E1" fromLane="0" toLane="0" dir="s" state="M"/>
    <connection from=":J0_6" to="E2" fromLane="0" toLane="0" dir="l" state="M"/>
    <connection from=":J0_7" to="E0" fromLane="0" toLane="0" dir="s" state="M"/>
    <connection from=":J0_8" to="E1" fromLane="0" toLane="0" via=":J0_9_0" dir="l" state="m"/>
    <connection from=":J0_9" to="E1" fromLane="0" toLane="0" dir="l" state="M"/>

</net>
