<?xml version="1.0" encoding="UTF-8"?>

<!-- generated on 2022-04-21 09:51:05 by Eclipse SUMO GUI Version 1.12.0
-->

<configuration xmlns:xsi="http://www.w3.org/2001/XMLSchema-instance" xsi:noNamespaceSchemaLocation="http://sumo.dlr.de/xsd/sumoConfiguration.xsd">

    <input>
        <net-file value="testintersection1.net.xml"/>
        <route-files value="testintersection1demand1.rou.xml"/>
    </input>

</configuration>
