<?xml version="1.0" encoding="UTF-8"?>

<!-- generated on 2022-01-18 09:47:03 by Eclipse SUMO netedit Version 1.11.0
-->

<routes xmlns:xsi="http://www.w3.org/2001/XMLSchema-instance" xsi:noNamespaceSchemaLocation="http://sumo.dlr.de/xsd/routes_file.xsd">
    <route edges="-E4 -E3" color="yellow" id="route_0"/>
    <route edges="E3 E4" color="yellow" id="route_1"/>
    <vehicle id="vehicle_0" depart="0.00" route="route_1"/>
    <vehicle id="vehicle_1" depart="0.00" route="route_0"/>
    <vehicle id="vehicle_2" depart="5.00" route="route_0"/>
    <vehicle id="vehicle_3" depart="5.00" route="route_1"/>
</routes>
