<?xml version="1.0" encoding="UTF-8"?>

<!-- generated on 2022-04-29 09:57:39 by Eclipse SUMO duarouter Version 1.12.0
<configuration xmlns:xsi="http://www.w3.org/2001/XMLSchema-instance" xsi:noNamespaceSchemaLocation="http://sumo.dlr.de/xsd/duarouterConfiguration.xsd">

    <input>
        <net-file value="simple.net.xml"/>
        <route-files value="trips.trips.xml"/>
    </input>

    <output>
        <output-file value="demand.rou.xml"/>
        <alternatives-output value="demand.rou.alt.xml"/>
    </output>

    <time>
        <begin value="0"/>
        <end value="150"/>
    </time>

    <report>
        <no-warnings value="true"/>
        <ignore-errors value="true"/>
        <no-step-log value="true"/>
    </report>

</configuration>
-->

<routes xmlns:xsi="http://www.w3.org/2001/XMLSchema-instance" xsi:noNamespaceSchemaLocation="http://sumo.dlr.de/xsd/routes_file.xsd">
    <vehicle id="0" depart="0.00">
        <route edges="RM MB"/>
    </vehicle>
    <vehicle id="1" depart="1.00">
        <route edges="LM MB"/>
    </vehicle>
    <vehicle id="3" depart="3.00">
        <route edges="TM MB"/>
    </vehicle>
    <vehicle id="4" depart="4.00">
        <route edges="LM MB"/>
    </vehicle>
    <vehicle id="5" depart="5.00">
        <route edges="BM MR"/>
    </vehicle>
    <vehicle id="8" depart="8.00">
        <route edges="BM MR"/>
    </vehicle>
    <vehicle id="9" depart="9.00">
        <route edges="TM MB"/>
    </vehicle>
    <vehicle id="10" depart="10.00">
        <route edges="TM MR"/>
    </vehicle>
    <vehicle id="11" depart="11.00">
        <route edges="LM MB"/>
    </vehicle>
    <vehicle id="12" depart="12.00">
        <route edges="TM ML"/>
    </vehicle>
    <vehicle id="14" depart="14.00">
        <route edges="TM MR"/>
    </vehicle>
    <vehicle id="15" depart="15.00">
        <route edges="TM MR"/>
    </vehicle>
    <vehicle id="16" depart="16.00">
        <route edges="RM MT"/>
    </vehicle>
    <vehicle id="17" depart="17.00">
        <route edges="LM MR"/>
    </vehicle>
    <vehicle id="18" depart="18.00">
        <route edges="TM MR"/>
    </vehicle>
    <vehicle id="19" depart="19.00">
        <route edges="TM MR"/>
    </vehicle>
    <vehicle id="20" depart="20.00">
        <route edges="RM MB"/>
    </vehicle>
    <vehicle id="21" depart="21.00">
        <route edges="BM ML"/>
    </vehicle>
    <vehicle id="23" depart="23.00">
        <route edges="BM ML"/>
    </vehicle>
    <vehicle id="24" depart="24.00">
        <route edges="RM ML"/>
    </vehicle>
    <vehicle id="25" depart="25.00">
        <route edges="LM MB"/>
    </vehicle>
    <vehicle id="26" depart="26.00">
        <route edges="LM MT"/>
    </vehicle>
    <vehicle id="28" depart="28.00">
        <route edges="BM MR"/>
    </vehicle>
    <vehicle id="29" depart="29.00">
        <route edges="BM ML"/>
    </vehicle>
    <vehicle id="30" depart="30.00">
        <route edges="TM MR"/>
    </vehicle>
    <vehicle id="35" depart="35.00">
        <route edges="BM MT"/>
    </vehicle>
    <vehicle id="36" depart="36.00">
        <route edges="TM ML"/>
    </vehicle>
    <vehicle id="37" depart="37.00">
        <route edges="RM ML"/>
    </vehicle>
    <vehicle id="38" depart="38.00">
        <route edges="TM ML"/>
    </vehicle>
    <vehicle id="39" depart="39.00">
        <route edges="LM MB"/>
    </vehicle>
    <vehicle id="40" depart="40.00">
        <route edges="RM ML"/>
    </vehicle>
    <vehicle id="41" depart="41.00">
        <route edges="RM MT"/>
    </vehicle>
    <vehicle id="42" depart="42.00">
        <route edges="LM MB"/>
    </vehicle>
    <vehicle id="43" depart="43.00">
        <route edges="TM MR"/>
    </vehicle>
    <vehicle id="45" depart="45.00">
        <route edges="BM MR"/>
    </vehicle>
    <vehicle id="46" depart="46.00">
        <route edges="TM ML"/>
    </vehicle>
    <vehicle id="47" depart="47.00">
        <route edges="BM ML"/>
    </vehicle>
    <vehicle id="48" depart="48.00">
        <route edges="TM MR"/>
    </vehicle>
    <vehicle id="50" depart="50.00">
        <route edges="BM MR"/>
    </vehicle>
    <vehicle id="52" depart="52.00">
        <route edges="LM MR"/>
    </vehicle>
    <vehicle id="53" depart="53.00">
        <route edges="BM ML"/>
    </vehicle>
    <vehicle id="54" depart="54.00">
        <route edges="LM MT"/>
    </vehicle>
    <vehicle id="55" depart="55.00">
        <route edges="TM ML"/>
    </vehicle>
    <vehicle id="56" depart="56.00">
        <route edges="RM MB"/>
    </vehicle>
    <vehicle id="58" depart="58.00">
        <route edges="LM MR"/>
    </vehicle>
    <vehicle id="59" depart="59.00">
        <route edges="RM MB"/>
    </vehicle>
    <vehicle id="60" depart="60.00">
        <route edges="TM MR"/>
    </vehicle>
    <vehicle id="61" depart="61.00">
        <route edges="TM MR"/>
    </vehicle>
    <vehicle id="62" depart="62.00">
        <route edges="BM ML"/>
    </vehicle>
    <vehicle id="63" depart="63.00">
        <route edges="BM MT"/>
    </vehicle>
    <vehicle id="65" depart="65.00">
        <route edges="LM MB"/>
    </vehicle>
    <vehicle id="67" depart="67.00">
        <route edges="BM ML"/>
    </vehicle>
    <vehicle id="68" depart="68.00">
        <route edges="BM MT"/>
    </vehicle>
    <vehicle id="69" depart="69.00">
        <route edges="TM MB"/>
    </vehicle>
    <vehicle id="70" depart="70.00">
        <route edges="LM MR"/>
    </vehicle>
    <vehicle id="71" depart="71.00">
        <route edges="LM MT"/>
    </vehicle>
    <vehicle id="72" depart="72.00">
        <route edges="LM MB"/>
    </vehicle>
    <vehicle id="74" depart="74.00">
        <route edges="BM ML"/>
    </vehicle>
    <vehicle id="75" depart="75.00">
        <route edges="TM MR"/>
    </vehicle>
    <vehicle id="76" depart="76.00">
        <route edges="LM MR"/>
    </vehicle>
    <vehicle id="78" depart="78.00">
        <route edges="LM MR"/>
    </vehicle>
    <vehicle id="80" depart="80.00">
        <route edges="BM MR"/>
    </vehicle>
    <vehicle id="81" depart="81.00">
        <route edges="BM MT"/>
    </vehicle>
    <vehicle id="82" depart="82.00">
        <route edges="TM MB"/>
    </vehicle>
    <vehicle id="83" depart="83.00">
        <route edges="BM MR"/>
    </vehicle>
    <vehicle id="85" depart="85.00">
        <route edges="TM MR"/>
    </vehicle>
    <vehicle id="86" depart="86.00">
        <route edges="LM MT"/>
    </vehicle>
    <vehicle id="87" depart="87.00">
        <route edges="TM MB"/>
    </vehicle>
    <vehicle id="88" depart="88.00">
        <route edges="BM ML"/>
    </vehicle>
    <vehicle id="91" depart="91.00">
        <route edges="TM MB"/>
    </vehicle>
    <vehicle id="93" depart="93.00">
        <route edges="TM MB"/>
    </vehicle>
    <vehicle id="94" depart="94.00">
        <route edges="BM ML"/>
    </vehicle>
    <vehicle id="96" depart="96.00">
        <route edges="BM MT"/>
    </vehicle>
    <vehicle id="97" depart="97.00">
        <route edges="LM MT"/>
    </vehicle>
    <vehicle id="98" depart="98.00">
        <route edges="RM MB"/>
    </vehicle>
    <vehicle id="101" depart="101.00">
        <route edges="TM MB"/>
    </vehicle>
    <vehicle id="102" depart="102.00">
        <route edges="LM MB"/>
    </vehicle>
    <vehicle id="103" depart="103.00">
        <route edges="LM MB"/>
    </vehicle>
    <vehicle id="104" depart="104.00">
        <route edges="LM MT"/>
    </vehicle>
    <vehicle id="105" depart="105.00">
        <route edges="LM MT"/>
    </vehicle>
    <vehicle id="109" depart="109.00">
        <route edges="BM ML"/>
    </vehicle>
    <vehicle id="110" depart="110.00">
        <route edges="TM MR"/>
    </vehicle>
    <vehicle id="112" depart="112.00">
        <route edges="BM MR"/>
    </vehicle>
    <vehicle id="113" depart="113.00">
        <route edges="RM MT"/>
    </vehicle>
    <vehicle id="114" depart="114.00">
        <route edges="BM MT"/>
    </vehicle>
    <vehicle id="118" depart="118.00">
        <route edges="TM MB"/>
    </vehicle>
    <vehicle id="120" depart="120.00">
        <route edges="LM MR"/>
    </vehicle>
    <vehicle id="121" depart="121.00">
        <route edges="RM MT"/>
    </vehicle>
    <vehicle id="122" depart="122.00">
        <route edges="BM MR"/>
    </vehicle>
    <vehicle id="123" depart="123.00">
        <route edges="BM ML"/>
    </vehicle>
    <vehicle id="124" depart="124.00">
        <route edges="RM ML"/>
    </vehicle>
    <vehicle id="125" depart="125.00">
        <route edges="LM MT"/>
    </vehicle>
    <vehicle id="126" depart="126.00">
        <route edges="BM ML"/>
    </vehicle>
    <vehicle id="129" depart="129.00">
        <route edges="LM MT"/>
    </vehicle>
    <vehicle id="131" depart="131.00">
        <route edges="LM MB"/>
    </vehicle>
    <vehicle id="132" depart="132.00">
        <route edges="TM MR"/>
    </vehicle>
    <vehicle id="133" depart="133.00">
        <route edges="RM MT"/>
    </vehicle>
    <vehicle id="134" depart="134.00">
        <route edges="RM MB"/>
    </vehicle>
    <vehicle id="135" depart="135.00">
        <route edges="TM ML"/>
    </vehicle>
    <vehicle id="136" depart="136.00">
        <route edges="RM MT"/>
    </vehicle>
    <vehicle id="138" depart="138.00">
        <route edges="BM MR"/>
    </vehicle>
    <vehicle id="139" depart="139.00">
        <route edges="LM MR"/>
    </vehicle>
    <vehicle id="140" depart="140.00">
        <route edges="RM MB"/>
    </vehicle>
    <vehicle id="141" depart="141.00">
        <route edges="RM ML"/>
    </vehicle>
    <vehicle id="142" depart="142.00">
        <route edges="LM MT"/>
    </vehicle>
    <vehicle id="143" depart="143.00">
        <route edges="TM MB"/>
    </vehicle>
    <vehicle id="145" depart="145.00">
        <route edges="BM MT"/>
    </vehicle>
    <vehicle id="146" depart="146.00">
        <route edges="RM ML"/>
    </vehicle>
    <vehicle id="148" depart="148.00">
        <route edges="LM MB"/>
    </vehicle>
    <vehicle id="149" depart="149.00">
        <route edges="BM MT"/>
    </vehicle>
</routes>
